
This summary file was generated by HydroDyn  on 06-Oct-2022 at 09:29:54.

WAMIT Model - Body    1
------------------
  Displaced volume (m^3)                 :     1.391700E+04
  X-offset of the center of buoyancy (m) :     0.000000E+00
  Y-offset of the center of buoyancy (m) :     0.000000E+00


  Buoyancy loads from members modelled with WAMIT, summed about ( 0.0, 0.0, 0.0 )
                                BuoyFxi               BuoyFyi               BuoyFzi               BuoyMxi               BuoyMyi               BuoyMzi 
                                  (N)                   (N)                   (N)                  (N-m)                 (N-m)                 (N-m)  
  External:                 0.000000E+00          0.000000E+00          1.398911E+08          0.000000E+00          0.000000E+00          0.000000E+00



Strip-Theory Volume Calculations(m^3)
-------------------------------------
  Structure Volume     :    0.00000E+00
  Submerged Volume     :    0.00000E+00
  Marine Growth Volume :    0.00000E+00
  Ballasted Volume     :    9.38912E+03
              NOTE: Structure, Submerged and Marine Growth volumes are based on members not modelled with WAMIT
                      Ballasted volume is computed from all members which are marked as filled in the HydroDyn input file, regardless of PropPot flag



Total Buoyancy loads summed about ( 0.0, 0.0, 0.0 )
---------------------------------------------------
                                BuoyFxi               BuoyFyi               BuoyFzi               BuoyMxi               BuoyMyi               BuoyMzi 
                                  (N)                   (N)                   (N)                  (N-m)                 (N-m)                 (N-m)  
 External:                  0.000000E+00          0.000000E+00          0.000000E+00          0.000000E+00          0.000000E+00          0.000000E+00
 Internal:                 -9.454185E+00          0.000000E+00         -9.437774E+07          0.000000E+00          6.987042E+02         -1.818989E-05
 Total   :                 -9.454185E+00          0.000000E+00         -9.437774E+07          0.000000E+00          6.987042E+02         -1.818989E-05
              NOTE: External buoyancy is based on members not modelled with WAMIT
                      Internal buoyancy is computed from all members which are marked as filled in the HydroDyn input file, regardless of PropPot flag
                    Total buoyancy does not include WAMIT-modelled buoyancy contribution



Weight loads about ( 0.0, 0.0, 0.0 )
------------------------------------
                                 MGFxi                 MGFyi                 MGFzi                 MGMxi                 MGMyi                 MGMzi  
                                  (N)                   (N)                   (N)                  (N-m)                 (N-m)                 (N-m)  
 Marine Growth:             0.000000E+00          0.000000E+00          0.000000E+00          0.000000E+00          0.000000E+00          0.000000E+00



Nodes (first [  44 ] are joints, remainder are internal nodes)


   i      MbrIndx      Nxi         Nyi         Nzi           R          t          tMG        MGDens     PropPot    FilledFlag  FilledMass      Cd          Ca          Cp         AxCd        AxCa        AxCp        JAxCd       JAxCa       JAxCp  
  (-)       (-)        (m)         (m)         (m)          (m)        (m)         (m)       (kg/m^3)      (-)         (-)        (kg)          (-)         (-)         (-)         (-)         (-)         (-)         (-)         (-)         (-)   
     1      -           0.0000      0.0000    -20.0000      -           -        0.000E+00   0.000E+00      -           -           -           -           -           -           -           -           -        0.000E+00   0.000E+00   1.000E+00
     2      -           0.0000      0.0000     10.0000      -           -        0.000E+00   0.000E+00      -           -           -           -           -           -           -           -           -        0.000E+00   0.000E+00   1.000E+00
     3      -          14.4338     25.0000    -14.0000      -           -        0.000E+00   0.000E+00      -           -           -           -           -           -           -           -           -        0.000E+00   0.000E+00   1.000E+00
     4      -          14.4338     25.0000     12.0000      -           -        0.000E+00   0.000E+00      -           -           -           -           -           -           -           -           -        0.000E+00   0.000E+00   1.000E+00
     5      -         -28.8675      0.0000    -14.0000      -           -        0.000E+00   0.000E+00      -           -           -           -           -           -           -           -           -        0.000E+00   0.000E+00   1.000E+00
     6      -         -28.8675      0.0000     12.0000      -           -        0.000E+00   0.000E+00      -           -           -           -           -           -           -           -           -        0.000E+00   0.000E+00   1.000E+00
     7      -          14.4338    -25.0000    -14.0000      -           -        0.000E+00   0.000E+00      -           -           -           -           -           -           -           -           -        0.000E+00   0.000E+00   1.000E+00
     8      -          14.4338    -25.0000     12.0000      -           -        0.000E+00   0.000E+00      -           -           -           -           -           -           -           -           -        0.000E+00   0.000E+00   1.000E+00
     9      -          14.4338     25.0000    -20.0000      -           -        0.000E+00   0.000E+00      -           -           -           -           -           -           -           -           -        9.600E+00   0.000E+00   1.000E+00
    10      -         -28.8675      0.0000    -20.0000      -           -        0.000E+00   0.000E+00      -           -           -           -           -           -           -           -           -        9.600E+00   0.000E+00   1.000E+00
    11      -          14.4338    -25.0000    -20.0000      -           -        0.000E+00   0.000E+00      -           -           -           -           -           -           -           -           -        9.600E+00   0.000E+00   1.000E+00
    12      -           9.2376     22.0000     10.0000      -           -        0.000E+00   0.000E+00      -           -           -           -           -           -           -           -           -        0.000E+00   0.000E+00   1.000E+00
    13      -         -23.6713      3.0000     10.0000      -           -        0.000E+00   0.000E+00      -           -           -           -           -           -           -           -           -        0.000E+00   0.000E+00   1.000E+00
    14      -         -23.6713     -3.0000     10.0000      -           -        0.000E+00   0.000E+00      -           -           -           -           -           -           -           -           -        0.000E+00   0.000E+00   1.000E+00
    15      -           9.2376    -22.0000     10.0000      -           -        0.000E+00   0.000E+00      -           -           -           -           -           -           -           -           -        0.000E+00   0.000E+00   1.000E+00
    16      -          14.4338    -19.0000     10.0000      -           -        0.000E+00   0.000E+00      -           -           -           -           -           -           -           -           -        0.000E+00   0.000E+00   1.000E+00
    17      -          14.4338     19.0000     10.0000      -           -        0.000E+00   0.000E+00      -           -           -           -           -           -           -           -           -        0.000E+00   0.000E+00   1.000E+00
    18      -           4.0415     19.0000    -17.0000      -           -        0.000E+00   0.000E+00      -           -           -           -           -           -           -           -           -        0.000E+00   0.000E+00   1.000E+00
    19      -         -18.4752      6.0000    -17.0000      -           -        0.000E+00   0.000E+00      -           -           -           -           -           -           -           -           -        0.000E+00   0.000E+00   1.000E+00
    20      -         -18.4752     -6.0000    -17.0000      -           -        0.000E+00   0.000E+00      -           -           -           -           -           -           -           -           -        0.000E+00   0.000E+00   1.000E+00
    21      -           4.0415    -19.0000    -17.0000      -           -        0.000E+00   0.000E+00      -           -           -           -           -           -           -           -           -        0.000E+00   0.000E+00   1.000E+00
    22      -          14.4338    -13.0000    -17.0000      -           -        0.000E+00   0.000E+00      -           -           -           -           -           -           -           -           -        0.000E+00   0.000E+00   1.000E+00
    23      -          14.4338     13.0000    -17.0000      -           -        0.000E+00   0.000E+00      -           -           -           -           -           -           -           -           -        0.000E+00   0.000E+00   1.000E+00
    24      -           1.6250      2.8150     10.0000      -           -        0.000E+00   0.000E+00      -           -           -           -           -           -           -           -           -        0.000E+00   0.000E+00   1.000E+00
    25      -          11.4338     19.8039     10.0000      -           -        0.000E+00   0.000E+00      -           -           -           -           -           -           -           -           -        0.000E+00   0.000E+00   1.000E+00
    26      -          -3.2500      0.0000     10.0000      -           -        0.000E+00   0.000E+00      -           -           -           -           -           -           -           -           -        0.000E+00   0.000E+00   1.000E+00
    27      -         -22.8700      0.0000     10.0000      -           -        0.000E+00   0.000E+00      -           -           -           -           -           -           -           -           -        0.000E+00   0.000E+00   1.000E+00
    28      -           1.6250     -2.8150     10.0000      -           -        0.000E+00   0.000E+00      -           -           -           -           -           -           -           -           -        0.000E+00   0.000E+00   1.000E+00
    29      -          11.4338    -19.8039     10.0000      -           -        0.000E+00   0.000E+00      -           -           -           -           -           -           -           -           -        0.000E+00   0.000E+00   1.000E+00
    30      -           1.6250      2.8150    -17.0000      -           -        0.000E+00   0.000E+00      -           -           -           -           -           -           -           -           -        0.000E+00   0.000E+00   1.000E+00
    31      -           8.4338     14.6077    -17.0000      -           -        0.000E+00   0.000E+00      -           -           -           -           -           -           -           -           -        0.000E+00   0.000E+00   1.000E+00
    32      -          -3.2500      0.0000    -17.0000      -           -        0.000E+00   0.000E+00      -           -           -           -           -           -           -           -           -        0.000E+00   0.000E+00   1.000E+00
    33      -         -16.8700      0.0000    -17.0000      -           -        0.000E+00   0.000E+00      -           -           -           -           -           -           -           -           -        0.000E+00   0.000E+00   1.000E+00
    34      -           1.6250     -2.8150    -17.0000      -           -        0.000E+00   0.000E+00      -           -           -           -           -           -           -           -           -        0.000E+00   0.000E+00   1.000E+00
    35      -           8.4338    -14.6077    -17.0000      -           -        0.000E+00   0.000E+00      -           -           -           -           -           -           -           -           -        0.000E+00   0.000E+00   1.000E+00
    36      -           1.6250      2.8150    -16.2000      -           -        0.000E+00   0.000E+00      -           -           -           -           -           -           -           -           -        0.000E+00   0.000E+00   1.000E+00
    37      -          11.4338     19.8039      9.1300      -           -        0.000E+00   0.000E+00      -           -           -           -           -           -           -           -           -        0.000E+00   0.000E+00   1.000E+00
    38      -          -3.2500      0.0000    -16.2000      -           -        0.000E+00   0.000E+00      -           -           -           -           -           -           -           -           -        0.000E+00   0.000E+00   1.000E+00
    39      -         -22.8700      0.0000      9.1300      -           -        0.000E+00   0.000E+00      -           -           -           -           -           -           -           -           -        0.000E+00   0.000E+00   1.000E+00
    40      -           1.6250     -2.8150    -16.2000      -           -        0.000E+00   0.000E+00      -           -           -           -           -           -           -           -           -        0.000E+00   0.000E+00   1.000E+00
    41      -          11.4338    -19.8039      9.1300      -           -        0.000E+00   0.000E+00      -           -           -           -           -           -           -           -           -        0.000E+00   0.000E+00   1.000E+00
    42      -          14.4338     25.0000    -19.9400      -           -        0.000E+00   0.000E+00      -           -           -           -           -           -           -           -           -        0.000E+00   0.000E+00   1.000E+00
    43      -         -28.8675      0.0000    -19.9400      -           -        0.000E+00   0.000E+00      -           -           -           -           -           -           -           -           -        0.000E+00   0.000E+00   1.000E+00
    44      -          14.4338    -25.0000    -19.9400      -           -        0.000E+00   0.000E+00      -           -           -           -           -           -           -           -           -        0.000E+00   0.000E+00   1.000E+00
    45           1      0.0000      0.0000    -19.0000   3.250E+00   3.000E-02   0.000E+00   0.000E+00           T           F   0.000E+00   5.600E-01   0.000E+00   0.000E+00   0.000E+00   0.000E+00   0.000E+00         -           -           -  
    46           1      0.0000      0.0000    -18.0000   3.250E+00   3.000E-02   0.000E+00   0.000E+00           T           F   0.000E+00   5.600E-01   0.000E+00   0.000E+00   0.000E+00   0.000E+00   0.000E+00         -           -           -  
    47           1      0.0000      0.0000    -17.0000   3.250E+00   3.000E-02   0.000E+00   0.000E+00           T           F   0.000E+00   5.600E-01   0.000E+00   0.000E+00   0.000E+00   0.000E+00   0.000E+00         -           -           -  
    48           1      0.0000      0.0000    -16.0000   3.250E+00   3.000E-02   0.000E+00   0.000E+00           T           F   0.000E+00   5.600E-01   0.000E+00   0.000E+00   0.000E+00   0.000E+00   0.000E+00         -           -           -  
    49           1      0.0000      0.0000    -15.0000   3.250E+00   3.000E-02   0.000E+00   0.000E+00           T           F   0.000E+00   5.600E-01   0.000E+00   0.000E+00   0.000E+00   0.000E+00   0.000E+00         -           -           -  
    50           1      0.0000      0.0000    -14.0000   3.250E+00   3.000E-02   0.000E+00   0.000E+00           T           F   0.000E+00   5.600E-01   0.000E+00   0.000E+00   0.000E+00   0.000E+00   0.000E+00         -           -           -  
    51           1      0.0000      0.0000    -13.0000   3.250E+00   3.000E-02   0.000E+00   0.000E+00           T           F   0.000E+00   5.600E-01   0.000E+00   0.000E+00   0.000E+00   0.000E+00   0.000E+00         -           -           -  
    52           1      0.0000      0.0000    -12.0000   3.250E+00   3.000E-02   0.000E+00   0.000E+00           T           F   0.000E+00   5.600E-01   0.000E+00   0.000E+00   0.000E+00   0.000E+00   0.000E+00         -           -           -  
    53           1      0.0000      0.0000    -11.0000   3.250E+00   3.000E-02   0.000E+00   0.000E+00           T           F   0.000E+00   5.600E-01   0.000E+00   0.000E+00   0.000E+00   0.000E+00   0.000E+00         -           -           -  
    54           1      0.0000      0.0000    -10.0000   3.250E+00   3.000E-02   0.000E+00   0.000E+00           T           F   0.000E+00   5.600E-01   0.000E+00   0.000E+00   0.000E+00   0.000E+00   0.000E+00         -           -           -  
    55           1      0.0000      0.0000     -9.0000   3.250E+00   3.000E-02   0.000E+00   0.000E+00           T           F   0.000E+00   5.600E-01   0.000E+00   0.000E+00   0.000E+00   0.000E+00   0.000E+00         -           -           -  
    56           1      0.0000      0.0000     -8.0000   3.250E+00   3.000E-02   0.000E+00   0.000E+00           T           F   0.000E+00   5.600E-01   0.000E+00   0.000E+00   0.000E+00   0.000E+00   0.000E+00         -           -           -  
    57           1      0.0000      0.0000     -7.0000   3.250E+00   3.000E-02   0.000E+00   0.000E+00           T           F   0.000E+00   5.600E-01   0.000E+00   0.000E+00   0.000E+00   0.000E+00   0.000E+00         -           -           -  
    58           1      0.0000      0.0000     -6.0000   3.250E+00   3.000E-02   0.000E+00   0.000E+00           T           F   0.000E+00   5.600E-01   0.000E+00   0.000E+00   0.000E+00   0.000E+00   0.000E+00         -           -           -  
    59           1      0.0000      0.0000     -5.0000   3.250E+00   3.000E-02   0.000E+00   0.000E+00           T           F   0.000E+00   5.600E-01   0.000E+00   0.000E+00   0.000E+00   0.000E+00   0.000E+00         -           -           -  
    60           1      0.0000      0.0000     -4.0000   3.250E+00   3.000E-02   0.000E+00   0.000E+00           T           F   0.000E+00   5.600E-01   0.000E+00   0.000E+00   0.000E+00   0.000E+00   0.000E+00         -           -           -  
    61           1      0.0000      0.0000     -3.0000   3.250E+00   3.000E-02   0.000E+00   0.000E+00           T           F   0.000E+00   5.600E-01   0.000E+00   0.000E+00   0.000E+00   0.000E+00   0.000E+00         -           -           -  
    62           1      0.0000      0.0000     -2.0000   3.250E+00   3.000E-02   0.000E+00   0.000E+00           T           F   0.000E+00   5.600E-01   0.000E+00   0.000E+00   0.000E+00   0.000E+00   0.000E+00         -           -           -  
    63           1      0.0000      0.0000     -1.0000   3.250E+00   3.000E-02   0.000E+00   0.000E+00           T           F   0.000E+00   5.600E-01   0.000E+00   0.000E+00   0.000E+00   0.000E+00   0.000E+00         -           -           -  
    64           1      0.0000      0.0000      0.0000   3.250E+00   3.000E-02   0.000E+00   0.000E+00           T           F   0.000E+00   5.600E-01   0.000E+00   0.000E+00   0.000E+00   0.000E+00   0.000E+00         -           -           -  
    65           1      0.0000      0.0000      1.0000   3.250E+00   3.000E-02   0.000E+00   0.000E+00           T           F   0.000E+00   5.600E-01   0.000E+00   0.000E+00   0.000E+00   0.000E+00   0.000E+00         -           -           -  
    66           1      0.0000      0.0000      2.0000   3.250E+00   3.000E-02   0.000E+00   0.000E+00           T           F   0.000E+00   5.600E-01   0.000E+00   0.000E+00   0.000E+00   0.000E+00   0.000E+00         -           -           -  
    67           1      0.0000      0.0000      3.0000   3.250E+00   3.000E-02   0.000E+00   0.000E+00           T           F   0.000E+00   5.600E-01   0.000E+00   0.000E+00   0.000E+00   0.000E+00   0.000E+00         -           -           -  
    68           1      0.0000      0.0000      4.0000   3.250E+00   3.000E-02   0.000E+00   0.000E+00           T           F   0.000E+00   5.600E-01   0.000E+00   0.000E+00   0.000E+00   0.000E+00   0.000E+00         -           -           -  
    69           1      0.0000      0.0000      5.0000   3.250E+00   3.000E-02   0.000E+00   0.000E+00           T           F   0.000E+00   5.600E-01   0.000E+00   0.000E+00   0.000E+00   0.000E+00   0.000E+00         -           -           -  
    70           1      0.0000      0.0000      6.0000   3.250E+00   3.000E-02   0.000E+00   0.000E+00           T           F   0.000E+00   5.600E-01   0.000E+00   0.000E+00   0.000E+00   0.000E+00   0.000E+00         -           -           -  
    71           1      0.0000      0.0000      7.0000   3.250E+00   3.000E-02   0.000E+00   0.000E+00           T           F   0.000E+00   5.600E-01   0.000E+00   0.000E+00   0.000E+00   0.000E+00   0.000E+00         -           -           -  
    72           1      0.0000      0.0000      8.0000   3.250E+00   3.000E-02   0.000E+00   0.000E+00           T           F   0.000E+00   5.600E-01   0.000E+00   0.000E+00   0.000E+00   0.000E+00   0.000E+00         -           -           -  
    73           1      0.0000      0.0000      9.0000   3.250E+00   3.000E-02   0.000E+00   0.000E+00           T           F   0.000E+00   5.600E-01   0.000E+00   0.000E+00   0.000E+00   0.000E+00   0.000E+00         -           -           -  
    74           2     14.4338     25.0000    -13.0000   6.000E+00   6.000E-02   0.000E+00   0.000E+00           T           T   1.136E+05   6.100E-01   0.000E+00   0.000E+00   0.000E+00   0.000E+00   0.000E+00         -           -           -  
    75           2     14.4338     25.0000    -12.0000   6.000E+00   6.000E-02   0.000E+00   0.000E+00           T           T   1.136E+05   6.100E-01   0.000E+00   0.000E+00   0.000E+00   0.000E+00   0.000E+00         -           -           -  
    76           2     14.4338     25.0000    -11.0000   6.000E+00   6.000E-02   0.000E+00   0.000E+00           T           T   1.136E+05   6.100E-01   0.000E+00   0.000E+00   0.000E+00   0.000E+00   0.000E+00         -           -           -  
    77           2     14.4338     25.0000    -10.0000   6.000E+00   6.000E-02   0.000E+00   0.000E+00           T           T   1.136E+05   6.100E-01   0.000E+00   0.000E+00   0.000E+00   0.000E+00   0.000E+00         -           -           -  
    78           2     14.4338     25.0000     -9.0000   6.000E+00   6.000E-02   0.000E+00   0.000E+00           T           T   1.136E+05   6.100E-01   0.000E+00   0.000E+00   0.000E+00   0.000E+00   0.000E+00         -           -           -  
    79           2     14.4338     25.0000     -8.0000   6.000E+00   6.000E-02   0.000E+00   0.000E+00           T           T   1.136E+05   6.100E-01   0.000E+00   0.000E+00   0.000E+00   0.000E+00   0.000E+00         -           -           -  
    80           2     14.4338     25.0000     -7.0000   6.000E+00   6.000E-02   0.000E+00   0.000E+00           T           T   9.430E+04   6.100E-01   0.000E+00   0.000E+00   0.000E+00   0.000E+00   0.000E+00         -           -           -  
    81           2     14.4338     25.0000     -6.0000   6.000E+00   6.000E-02   0.000E+00   0.000E+00           T           F   0.000E+00   6.100E-01   0.000E+00   0.000E+00   0.000E+00   0.000E+00   0.000E+00         -           -           -  
    82           2     14.4338     25.0000     -5.0000   6.000E+00   6.000E-02   0.000E+00   0.000E+00           T           F   0.000E+00   6.100E-01   0.000E+00   0.000E+00   0.000E+00   0.000E+00   0.000E+00         -           -           -  
    83           2     14.4338     25.0000     -4.0000   6.000E+00   6.000E-02   0.000E+00   0.000E+00           T           F   0.000E+00   6.100E-01   0.000E+00   0.000E+00   0.000E+00   0.000E+00   0.000E+00         -           -           -  
    84           2     14.4338     25.0000     -3.0000   6.000E+00   6.000E-02   0.000E+00   0.000E+00           T           F   0.000E+00   6.100E-01   0.000E+00   0.000E+00   0.000E+00   0.000E+00   0.000E+00         -           -           -  
    85           2     14.4338     25.0000     -2.0000   6.000E+00   6.000E-02   0.000E+00   0.000E+00           T           F   0.000E+00   6.100E-01   0.000E+00   0.000E+00   0.000E+00   0.000E+00   0.000E+00         -           -           -  
    86           2     14.4338     25.0000     -1.0000   6.000E+00   6.000E-02   0.000E+00   0.000E+00           T           F   0.000E+00   6.100E-01   0.000E+00   0.000E+00   0.000E+00   0.000E+00   0.000E+00         -           -           -  
    87           2     14.4338     25.0000      0.0000   6.000E+00   6.000E-02   0.000E+00   0.000E+00           T           F   0.000E+00   6.100E-01   0.000E+00   0.000E+00   0.000E+00   0.000E+00   0.000E+00         -           -           -  
    88           2     14.4338     25.0000      1.0000   6.000E+00   6.000E-02   0.000E+00   0.000E+00           T           F   0.000E+00   6.100E-01   0.000E+00   0.000E+00   0.000E+00   0.000E+00   0.000E+00         -           -           -  
    89           2     14.4338     25.0000      2.0000   6.000E+00   6.000E-02   0.000E+00   0.000E+00           T           F   0.000E+00   6.100E-01   0.000E+00   0.000E+00   0.000E+00   0.000E+00   0.000E+00         -           -           -  
    90           2     14.4338     25.0000      3.0000   6.000E+00   6.000E-02   0.000E+00   0.000E+00           T           F   0.000E+00   6.100E-01   0.000E+00   0.000E+00   0.000E+00   0.000E+00   0.000E+00         -           -           -  
    91           2     14.4338     25.0000      4.0000   6.000E+00   6.000E-02   0.000E+00   0.000E+00           T           F   0.000E+00   6.100E-01   0.000E+00   0.000E+00   0.000E+00   0.000E+00   0.000E+00         -           -           -  
    92           2     14.4338     25.0000      5.0000   6.000E+00   6.000E-02   0.000E+00   0.000E+00           T           F   0.000E+00   6.100E-01   0.000E+00   0.000E+00   0.000E+00   0.000E+00   0.000E+00         -           -           -  
    93           2     14.4338     25.0000      6.0000   6.000E+00   6.000E-02   0.000E+00   0.000E+00           T           F   0.000E+00   6.100E-01   0.000E+00   0.000E+00   0.000E+00   0.000E+00   0.000E+00         -           -           -  
    94           2     14.4338     25.0000      7.0000   6.000E+00   6.000E-02   0.000E+00   0.000E+00           T           F   0.000E+00   6.100E-01   0.000E+00   0.000E+00   0.000E+00   0.000E+00   0.000E+00         -           -           -  
    95           2     14.4338     25.0000      8.0000   6.000E+00   6.000E-02   0.000E+00   0.000E+00           T           F   0.000E+00   6.100E-01   0.000E+00   0.000E+00   0.000E+00   0.000E+00   0.000E+00         -           -           -  
    96           2     14.4338     25.0000      9.0000   6.000E+00   6.000E-02   0.000E+00   0.000E+00           T           F   0.000E+00   6.100E-01   0.000E+00   0.000E+00   0.000E+00   0.000E+00   0.000E+00         -           -           -  
    97           2     14.4338     25.0000     10.0000   6.000E+00   6.000E-02   0.000E+00   0.000E+00           T           F   0.000E+00   6.100E-01   0.000E+00   0.000E+00   0.000E+00   0.000E+00   0.000E+00         -           -           -  
    98           2     14.4338     25.0000     11.0000   6.000E+00   6.000E-02   0.000E+00   0.000E+00           T           F   0.000E+00   6.100E-01   0.000E+00   0.000E+00   0.000E+00   0.000E+00   0.000E+00         -           -           -  
    99           3    -28.8675      0.0000    -13.0000   6.000E+00   6.000E-02   0.000E+00   0.000E+00           T           T   1.136E+05   6.100E-01   0.000E+00   0.000E+00   0.000E+00   0.000E+00   0.000E+00         -           -           -  
   100           3    -28.8675      0.0000    -12.0000   6.000E+00   6.000E-02   0.000E+00   0.000E+00           T           T   1.136E+05   6.100E-01   0.000E+00   0.000E+00   0.000E+00   0.000E+00   0.000E+00         -           -           -  
   101           3    -28.8675      0.0000    -11.0000   6.000E+00   6.000E-02   0.000E+00   0.000E+00           T           T   1.136E+05   6.100E-01   0.000E+00   0.000E+00   0.000E+00   0.000E+00   0.000E+00         -           -           -  
   102           3    -28.8675      0.0000    -10.0000   6.000E+00   6.000E-02   0.000E+00   0.000E+00           T           T   1.136E+05   6.100E-01   0.000E+00   0.000E+00   0.000E+00   0.000E+00   0.000E+00         -           -           -  
   103           3    -28.8675      0.0000     -9.0000   6.000E+00   6.000E-02   0.000E+00   0.000E+00           T           T   1.136E+05   6.100E-01   0.000E+00   0.000E+00   0.000E+00   0.000E+00   0.000E+00         -           -           -  
   104           3    -28.8675      0.0000     -8.0000   6.000E+00   6.000E-02   0.000E+00   0.000E+00           T           T   1.136E+05   6.100E-01   0.000E+00   0.000E+00   0.000E+00   0.000E+00   0.000E+00         -           -           -  
   105           3    -28.8675      0.0000     -7.0000   6.000E+00   6.000E-02   0.000E+00   0.000E+00           T           T   9.430E+04   6.100E-01   0.000E+00   0.000E+00   0.000E+00   0.000E+00   0.000E+00         -           -           -  
   106           3    -28.8675      0.0000     -6.0000   6.000E+00   6.000E-02   0.000E+00   0.000E+00           T           F   0.000E+00   6.100E-01   0.000E+00   0.000E+00   0.000E+00   0.000E+00   0.000E+00         -           -           -  
   107           3    -28.8675      0.0000     -5.0000   6.000E+00   6.000E-02   0.000E+00   0.000E+00           T           F   0.000E+00   6.100E-01   0.000E+00   0.000E+00   0.000E+00   0.000E+00   0.000E+00         -           -           -  
   108           3    -28.8675      0.0000     -4.0000   6.000E+00   6.000E-02   0.000E+00   0.000E+00           T           F   0.000E+00   6.100E-01   0.000E+00   0.000E+00   0.000E+00   0.000E+00   0.000E+00         -           -           -  
   109           3    -28.8675      0.0000     -3.0000   6.000E+00   6.000E-02   0.000E+00   0.000E+00           T           F   0.000E+00   6.100E-01   0.000E+00   0.000E+00   0.000E+00   0.000E+00   0.000E+00         -           -           -  
   110           3    -28.8675      0.0000     -2.0000   6.000E+00   6.000E-02   0.000E+00   0.000E+00           T           F   0.000E+00   6.100E-01   0.000E+00   0.000E+00   0.000E+00   0.000E+00   0.000E+00         -           -           -  
   111           3    -28.8675      0.0000     -1.0000   6.000E+00   6.000E-02   0.000E+00   0.000E+00           T           F   0.000E+00   6.100E-01   0.000E+00   0.000E+00   0.000E+00   0.000E+00   0.000E+00         -           -           -  
   112           3    -28.8675      0.0000      0.0000   6.000E+00   6.000E-02   0.000E+00   0.000E+00           T           F   0.000E+00   6.100E-01   0.000E+00   0.000E+00   0.000E+00   0.000E+00   0.000E+00         -           -           -  
   113           3    -28.8675      0.0000      1.0000   6.000E+00   6.000E-02   0.000E+00   0.000E+00           T           F   0.000E+00   6.100E-01   0.000E+00   0.000E+00   0.000E+00   0.000E+00   0.000E+00         -           -           -  
   114           3    -28.8675      0.0000      2.0000   6.000E+00   6.000E-02   0.000E+00   0.000E+00           T           F   0.000E+00   6.100E-01   0.000E+00   0.000E+00   0.000E+00   0.000E+00   0.000E+00         -           -           -  
   115           3    -28.8675      0.0000      3.0000   6.000E+00   6.000E-02   0.000E+00   0.000E+00           T           F   0.000E+00   6.100E-01   0.000E+00   0.000E+00   0.000E+00   0.000E+00   0.000E+00         -           -           -  
   116           3    -28.8675      0.0000      4.0000   6.000E+00   6.000E-02   0.000E+00   0.000E+00           T           F   0.000E+00   6.100E-01   0.000E+00   0.000E+00   0.000E+00   0.000E+00   0.000E+00         -           -           -  
   117           3    -28.8675      0.0000      5.0000   6.000E+00   6.000E-02   0.000E+00   0.000E+00           T           F   0.000E+00   6.100E-01   0.000E+00   0.000E+00   0.000E+00   0.000E+00   0.000E+00         -           -           -  
   118           3    -28.8675      0.0000      6.0000   6.000E+00   6.000E-02   0.000E+00   0.000E+00           T           F   0.000E+00   6.100E-01   0.000E+00   0.000E+00   0.000E+00   0.000E+00   0.000E+00         -           -           -  
   119           3    -28.8675      0.0000      7.0000   6.000E+00   6.000E-02   0.000E+00   0.000E+00           T           F   0.000E+00   6.100E-01   0.000E+00   0.000E+00   0.000E+00   0.000E+00   0.000E+00         -           -           -  
   120           3    -28.8675      0.0000      8.0000   6.000E+00   6.000E-02   0.000E+00   0.000E+00           T           F   0.000E+00   6.100E-01   0.000E+00   0.000E+00   0.000E+00   0.000E+00   0.000E+00         -           -           -  
   121           3    -28.8675      0.0000      9.0000   6.000E+00   6.000E-02   0.000E+00   0.000E+00           T           F   0.000E+00   6.100E-01   0.000E+00   0.000E+00   0.000E+00   0.000E+00   0.000E+00         -           -           -  
   122           3    -28.8675      0.0000     10.0000   6.000E+00   6.000E-02   0.000E+00   0.000E+00           T           F   0.000E+00   6.100E-01   0.000E+00   0.000E+00   0.000E+00   0.000E+00   0.000E+00         -           -           -  
   123           3    -28.8675      0.0000     11.0000   6.000E+00   6.000E-02   0.000E+00   0.000E+00           T           F   0.000E+00   6.100E-01   0.000E+00   0.000E+00   0.000E+00   0.000E+00   0.000E+00         -           -           -  
   124           4     14.4338    -25.0000    -13.0000   6.000E+00   6.000E-02   0.000E+00   0.000E+00           T           T   1.136E+05   6.100E-01   0.000E+00   0.000E+00   0.000E+00   0.000E+00   0.000E+00         -           -           -  
   125           4     14.4338    -25.0000    -12.0000   6.000E+00   6.000E-02   0.000E+00   0.000E+00           T           T   1.136E+05   6.100E-01   0.000E+00   0.000E+00   0.000E+00   0.000E+00   0.000E+00         -           -           -  
   126           4     14.4338    -25.0000    -11.0000   6.000E+00   6.000E-02   0.000E+00   0.000E+00           T           T   1.136E+05   6.100E-01   0.000E+00   0.000E+00   0.000E+00   0.000E+00   0.000E+00         -           -           -  
   127           4     14.4338    -25.0000    -10.0000   6.000E+00   6.000E-02   0.000E+00   0.000E+00           T           T   1.136E+05   6.100E-01   0.000E+00   0.000E+00   0.000E+00   0.000E+00   0.000E+00         -           -           -  
   128           4     14.4338    -25.0000     -9.0000   6.000E+00   6.000E-02   0.000E+00   0.000E+00           T           T   1.136E+05   6.100E-01   0.000E+00   0.000E+00   0.000E+00   0.000E+00   0.000E+00         -           -           -  
   129           4     14.4338    -25.0000     -8.0000   6.000E+00   6.000E-02   0.000E+00   0.000E+00           T           T   1.136E+05   6.100E-01   0.000E+00   0.000E+00   0.000E+00   0.000E+00   0.000E+00         -           -           -  
   130           4     14.4338    -25.0000     -7.0000   6.000E+00   6.000E-02   0.000E+00   0.000E+00           T           T   9.430E+04   6.100E-01   0.000E+00   0.000E+00   0.000E+00   0.000E+00   0.000E+00         -           -           -  
   131           4     14.4338    -25.0000     -6.0000   6.000E+00   6.000E-02   0.000E+00   0.000E+00           T           F   0.000E+00   6.100E-01   0.000E+00   0.000E+00   0.000E+00   0.000E+00   0.000E+00         -           -           -  
   132           4     14.4338    -25.0000     -5.0000   6.000E+00   6.000E-02   0.000E+00   0.000E+00           T           F   0.000E+00   6.100E-01   0.000E+00   0.000E+00   0.000E+00   0.000E+00   0.000E+00         -           -           -  
   133           4     14.4338    -25.0000     -4.0000   6.000E+00   6.000E-02   0.000E+00   0.000E+00           T           F   0.000E+00   6.100E-01   0.000E+00   0.000E+00   0.000E+00   0.000E+00   0.000E+00         -           -           -  
   134           4     14.4338    -25.0000     -3.0000   6.000E+00   6.000E-02   0.000E+00   0.000E+00           T           F   0.000E+00   6.100E-01   0.000E+00   0.000E+00   0.000E+00   0.000E+00   0.000E+00         -           -           -  
   135           4     14.4338    -25.0000     -2.0000   6.000E+00   6.000E-02   0.000E+00   0.000E+00           T           F   0.000E+00   6.100E-01   0.000E+00   0.000E+00   0.000E+00   0.000E+00   0.000E+00         -           -           -  
   136           4     14.4338    -25.0000     -1.0000   6.000E+00   6.000E-02   0.000E+00   0.000E+00           T           F   0.000E+00   6.100E-01   0.000E+00   0.000E+00   0.000E+00   0.000E+00   0.000E+00         -           -           -  
   137           4     14.4338    -25.0000      0.0000   6.000E+00   6.000E-02   0.000E+00   0.000E+00           T           F   0.000E+00   6.100E-01   0.000E+00   0.000E+00   0.000E+00   0.000E+00   0.000E+00         -           -           -  
   138           4     14.4338    -25.0000      1.0000   6.000E+00   6.000E-02   0.000E+00   0.000E+00           T           F   0.000E+00   6.100E-01   0.000E+00   0.000E+00   0.000E+00   0.000E+00   0.000E+00         -           -           -  
   139           4     14.4338    -25.0000      2.0000   6.000E+00   6.000E-02   0.000E+00   0.000E+00           T           F   0.000E+00   6.100E-01   0.000E+00   0.000E+00   0.000E+00   0.000E+00   0.000E+00         -           -           -  
   140           4     14.4338    -25.0000      3.0000   6.000E+00   6.000E-02   0.000E+00   0.000E+00           T           F   0.000E+00   6.100E-01   0.000E+00   0.000E+00   0.000E+00   0.000E+00   0.000E+00         -           -           -  
   141           4     14.4338    -25.0000      4.0000   6.000E+00   6.000E-02   0.000E+00   0.000E+00           T           F   0.000E+00   6.100E-01   0.000E+00   0.000E+00   0.000E+00   0.000E+00   0.000E+00         -           -           -  
   142           4     14.4338    -25.0000      5.0000   6.000E+00   6.000E-02   0.000E+00   0.000E+00           T           F   0.000E+00   6.100E-01   0.000E+00   0.000E+00   0.000E+00   0.000E+00   0.000E+00         -           -           -  
   143           4     14.4338    -25.0000      6.0000   6.000E+00   6.000E-02   0.000E+00   0.000E+00           T           F   0.000E+00   6.100E-01   0.000E+00   0.000E+00   0.000E+00   0.000E+00   0.000E+00         -           -           -  
   144           4     14.4338    -25.0000      7.0000   6.000E+00   6.000E-02   0.000E+00   0.000E+00           T           F   0.000E+00   6.100E-01   0.000E+00   0.000E+00   0.000E+00   0.000E+00   0.000E+00         -           -           -  
   145           4     14.4338    -25.0000      8.0000   6.000E+00   6.000E-02   0.000E+00   0.000E+00           T           F   0.000E+00   6.100E-01   0.000E+00   0.000E+00   0.000E+00   0.000E+00   0.000E+00         -           -           -  
   146           4     14.4338    -25.0000      9.0000   6.000E+00   6.000E-02   0.000E+00   0.000E+00           T           F   0.000E+00   6.100E-01   0.000E+00   0.000E+00   0.000E+00   0.000E+00   0.000E+00         -           -           -  
   147           4     14.4338    -25.0000     10.0000   6.000E+00   6.000E-02   0.000E+00   0.000E+00           T           F   0.000E+00   6.100E-01   0.000E+00   0.000E+00   0.000E+00   0.000E+00   0.000E+00         -           -           -  
   148           4     14.4338    -25.0000     11.0000   6.000E+00   6.000E-02   0.000E+00   0.000E+00           T           F   0.000E+00   6.100E-01   0.000E+00   0.000E+00   0.000E+00   0.000E+00   0.000E+00         -           -           -  
   149           5     14.4338     25.0000    -18.9500   1.200E+01   6.000E-02   0.000E+00   0.000E+00           T           T   4.545E+05   6.800E-01   0.000E+00   0.000E+00   0.000E+00   0.000E+00   0.000E+00         -           -           -  
   150           5     14.4338     25.0000    -17.9600   1.200E+01   6.000E-02   0.000E+00   0.000E+00           T           T   4.545E+05   6.800E-01   0.000E+00   0.000E+00   0.000E+00   0.000E+00   0.000E+00         -           -           -  
   151           5     14.4338     25.0000    -16.9700   1.200E+01   6.000E-02   0.000E+00   0.000E+00           T           T   4.545E+05   6.800E-01   0.000E+00   0.000E+00   0.000E+00   0.000E+00   0.000E+00         -           -           -  
   152           5     14.4338     25.0000    -15.9800   1.200E+01   6.000E-02   0.000E+00   0.000E+00           T           T   4.545E+05   6.800E-01   0.000E+00   0.000E+00   0.000E+00   0.000E+00   0.000E+00         -           -           -  
   153           5     14.4338     25.0000    -14.9900   1.200E+01   6.000E-02   0.000E+00   0.000E+00           T           T   4.591E+04   6.800E-01   0.000E+00   0.000E+00   0.000E+00   0.000E+00   0.000E+00         -           -           -  
   154           6    -28.8675      0.0000    -18.9500   1.200E+01   6.000E-02   0.000E+00   0.000E+00           T           T   4.545E+05   6.800E-01   0.000E+00   0.000E+00   0.000E+00   0.000E+00   0.000E+00         -           -           -  
   155           6    -28.8675      0.0000    -17.9600   1.200E+01   6.000E-02   0.000E+00   0.000E+00           T           T   4.545E+05   6.800E-01   0.000E+00   0.000E+00   0.000E+00   0.000E+00   0.000E+00         -           -           -  
   156           6    -28.8675      0.0000    -16.9700   1.200E+01   6.000E-02   0.000E+00   0.000E+00           T           T   4.545E+05   6.800E-01   0.000E+00   0.000E+00   0.000E+00   0.000E+00   0.000E+00         -           -           -  
   157           6    -28.8675      0.0000    -15.9800   1.200E+01   6.000E-02   0.000E+00   0.000E+00           T           T   4.545E+05   6.800E-01   0.000E+00   0.000E+00   0.000E+00   0.000E+00   0.000E+00         -           -           -  
   158           6    -28.8675      0.0000    -14.9900   1.200E+01   6.000E-02   0.000E+00   0.000E+00           T           T   4.591E+04   6.800E-01   0.000E+00   0.000E+00   0.000E+00   0.000E+00   0.000E+00         -           -           -  
   159           7     14.4338    -25.0000    -18.9500   1.200E+01   6.000E-02   0.000E+00   0.000E+00           T           T   4.545E+05   6.800E-01   0.000E+00   0.000E+00   0.000E+00   0.000E+00   0.000E+00         -           -           -  
   160           7     14.4338    -25.0000    -17.9600   1.200E+01   6.000E-02   0.000E+00   0.000E+00           T           T   4.545E+05   6.800E-01   0.000E+00   0.000E+00   0.000E+00   0.000E+00   0.000E+00         -           -           -  
   161           7     14.4338    -25.0000    -16.9700   1.200E+01   6.000E-02   0.000E+00   0.000E+00           T           T   4.545E+05   6.800E-01   0.000E+00   0.000E+00   0.000E+00   0.000E+00   0.000E+00         -           -           -  
   162           7     14.4338    -25.0000    -15.9800   1.200E+01   6.000E-02   0.000E+00   0.000E+00           T           T   4.545E+05   6.800E-01   0.000E+00   0.000E+00   0.000E+00   0.000E+00   0.000E+00         -           -           -  
   163           7     14.4338    -25.0000    -14.9900   1.200E+01   6.000E-02   0.000E+00   0.000E+00           T           T   4.591E+04   6.800E-01   0.000E+00   0.000E+00   0.000E+00   0.000E+00   0.000E+00         -           -           -  
   164           8      8.3716     21.5000     10.0000   8.000E-01   1.750E-02   0.000E+00   0.000E+00           T           F   0.000E+00   6.300E-01   0.000E+00   0.000E+00   0.000E+00   0.000E+00   0.000E+00         -           -           -  
   165           8      7.5056     21.0000     10.0000   8.000E-01   1.750E-02   0.000E+00   0.000E+00           T           F   0.000E+00   6.300E-01   0.000E+00   0.000E+00   0.000E+00   0.000E+00   0.000E+00         -           -           -  
   166           8      6.6395     20.5000     10.0000   8.000E-01   1.750E-02   0.000E+00   0.000E+00           T           F   0.000E+00   6.300E-01   0.000E+00   0.000E+00   0.000E+00   0.000E+00   0.000E+00         -           -           -  
   167           8      5.7735     20.0000     10.0000   8.000E-01   1.750E-02   0.000E+00   0.000E+00           T           F   0.000E+00   6.300E-01   0.000E+00   0.000E+00   0.000E+00   0.000E+00   0.000E+00         -           -           -  
   168           8      4.9075     19.5000     10.0000   8.000E-01   1.750E-02   0.000E+00   0.000E+00           T           F   0.000E+00   6.300E-01   0.000E+00   0.000E+00   0.000E+00   0.000E+00   0.000E+00         -           -           -  
   169           8      4.0415     19.0000     10.0000   8.000E-01   1.750E-02   0.000E+00   0.000E+00           T           F   0.000E+00   6.300E-01   0.000E+00   0.000E+00   0.000E+00   0.000E+00   0.000E+00         -           -           -  
   170           8      3.1754     18.5000     10.0000   8.000E-01   1.750E-02   0.000E+00   0.000E+00           T           F   0.000E+00   6.300E-01   0.000E+00   0.000E+00   0.000E+00   0.000E+00   0.000E+00         -           -           -  
   171           8      2.3094     18.0000     10.0000   8.000E-01   1.750E-02   0.000E+00   0.000E+00           T           F   0.000E+00   6.300E-01   0.000E+00   0.000E+00   0.000E+00   0.000E+00   0.000E+00         -           -           -  
   172           8      1.4434     17.5000     10.0000   8.000E-01   1.750E-02   0.000E+00   0.000E+00           T           F   0.000E+00   6.300E-01   0.000E+00   0.000E+00   0.000E+00   0.000E+00   0.000E+00         -           -           -  
   173           8      0.5774     17.0000     10.0000   8.000E-01   1.750E-02   0.000E+00   0.000E+00           T           F   0.000E+00   6.300E-01   0.000E+00   0.000E+00   0.000E+00   0.000E+00   0.000E+00         -           -           -  
   174           8     -0.2887     16.5000     10.0000   8.000E-01   1.750E-02   0.000E+00   0.000E+00           T           F   0.000E+00   6.300E-01   0.000E+00   0.000E+00   0.000E+00   0.000E+00   0.000E+00         -           -           -  
   175           8     -1.1547     16.0000     10.0000   8.000E-01   1.750E-02   0.000E+00   0.000E+00           T           F   0.000E+00   6.300E-01   0.000E+00   0.000E+00   0.000E+00   0.000E+00   0.000E+00         -           -           -  
   176           8     -2.0207     15.5000     10.0000   8.000E-01   1.750E-02   0.000E+00   0.000E+00           T           F   0.000E+00   6.300E-01   0.000E+00   0.000E+00   0.000E+00   0.000E+00   0.000E+00         -           -           -  
   177           8     -2.8867     15.0000     10.0000   8.000E-01   1.750E-02   0.000E+00   0.000E+00           T           F   0.000E+00   6.300E-01   0.000E+00   0.000E+00   0.000E+00   0.000E+00   0.000E+00         -           -           -  
   178           8     -3.7528     14.5000     10.0000   8.000E-01   1.750E-02   0.000E+00   0.000E+00           T           F   0.000E+00   6.300E-01   0.000E+00   0.000E+00   0.000E+00   0.000E+00   0.000E+00         -           -           -  
   179           8     -4.6188     14.0000     10.0000   8.000E-01   1.750E-02   0.000E+00   0.000E+00           T           F   0.000E+00   6.300E-01   0.000E+00   0.000E+00   0.000E+00   0.000E+00   0.000E+00         -           -           -  
   180           8     -5.4848     13.5000     10.0000   8.000E-01   1.750E-02   0.000E+00   0.000E+00           T           F   0.000E+00   6.300E-01   0.000E+00   0.000E+00   0.000E+00   0.000E+00   0.000E+00         -           -           -  
   181           8     -6.3508     13.0000     10.0000   8.000E-01   1.750E-02   0.000E+00   0.000E+00           T           F   0.000E+00   6.300E-01   0.000E+00   0.000E+00   0.000E+00   0.000E+00   0.000E+00         -           -           -  
   182           8     -7.2169     12.5000     10.0000   8.000E-01   1.750E-02   0.000E+00   0.000E+00           T           F   0.000E+00   6.300E-01   0.000E+00   0.000E+00   0.000E+00   0.000E+00   0.000E+00         -           -           -  
   183           8     -8.0829     12.0000     10.0000   8.000E-01   1.750E-02   0.000E+00   0.000E+00           T           F   0.000E+00   6.300E-01   0.000E+00   0.000E+00   0.000E+00   0.000E+00   0.000E+00         -           -           -  
   184           8     -8.9489     11.5000     10.0000   8.000E-01   1.750E-02   0.000E+00   0.000E+00           T           F   0.000E+00   6.300E-01   0.000E+00   0.000E+00   0.000E+00   0.000E+00   0.000E+00         -           -           -  
   185           8     -9.8149     11.0000     10.0000   8.000E-01   1.750E-02   0.000E+00   0.000E+00           T           F   0.000E+00   6.300E-01   0.000E+00   0.000E+00   0.000E+00   0.000E+00   0.000E+00         -           -           -  
   186           8    -10.6809     10.5000     10.0000   8.000E-01   1.750E-02   0.000E+00   0.000E+00           T           F   0.000E+00   6.300E-01   0.000E+00   0.000E+00   0.000E+00   0.000E+00   0.000E+00         -           -           -  
   187           8    -11.5470     10.0000     10.0000   8.000E-01   1.750E-02   0.000E+00   0.000E+00           T           F   0.000E+00   6.300E-01   0.000E+00   0.000E+00   0.000E+00   0.000E+00   0.000E+00         -           -           -  
   188           8    -12.4130      9.5000     10.0000   8.000E-01   1.750E-02   0.000E+00   0.000E+00           T           F   0.000E+00   6.300E-01   0.000E+00   0.000E+00   0.000E+00   0.000E+00   0.000E+00         -           -           -  
   189           8    -13.2790      9.0000     10.0000   8.000E-01   1.750E-02   0.000E+00   0.000E+00           T           F   0.000E+00   6.300E-01   0.000E+00   0.000E+00   0.000E+00   0.000E+00   0.000E+00         -           -           -  
   190           8    -14.1450      8.5000     10.0000   8.000E-01   1.750E-02   0.000E+00   0.000E+00           T           F   0.000E+00   6.300E-01   0.000E+00   0.000E+00   0.000E+00   0.000E+00   0.000E+00         -           -           -  
   191           8    -15.0111      8.0000     10.0000   8.000E-01   1.750E-02   0.000E+00   0.000E+00           T           F   0.000E+00   6.300E-01   0.000E+00   0.000E+00   0.000E+00   0.000E+00   0.000E+00         -           -           -  
   192           8    -15.8771      7.5000     10.0000   8.000E-01   1.750E-02   0.000E+00   0.000E+00           T           F   0.000E+00   6.300E-01   0.000E+00   0.000E+00   0.000E+00   0.000E+00   0.000E+00         -           -           -  
   193           8    -16.7431      7.0000     10.0000   8.000E-01   1.750E-02   0.000E+00   0.000E+00           T           F   0.000E+00   6.300E-01   0.000E+00   0.000E+00   0.000E+00   0.000E+00   0.000E+00         -           -           -  
   194           8    -17.6091      6.5000     10.0000   8.000E-01   1.750E-02   0.000E+00   0.000E+00           T           F   0.000E+00   6.300E-01   0.000E+00   0.000E+00   0.000E+00   0.000E+00   0.000E+00         -           -           -  
   195           8    -18.4752      6.0000     10.0000   8.000E-01   1.750E-02   0.000E+00   0.000E+00           T           F   0.000E+00   6.300E-01   0.000E+00   0.000E+00   0.000E+00   0.000E+00   0.000E+00         -           -           -  
   196           8    -19.3412      5.5000     10.0000   8.000E-01   1.750E-02   0.000E+00   0.000E+00           T           F   0.000E+00   6.300E-01   0.000E+00   0.000E+00   0.000E+00   0.000E+00   0.000E+00         -           -           -  
   197           8    -20.2072      5.0000     10.0000   8.000E-01   1.750E-02   0.000E+00   0.000E+00           T           F   0.000E+00   6.300E-01   0.000E+00   0.000E+00   0.000E+00   0.000E+00   0.000E+00         -           -           -  
   198           8    -21.0732      4.5000     10.0000   8.000E-01   1.750E-02   0.000E+00   0.000E+00           T           F   0.000E+00   6.300E-01   0.000E+00   0.000E+00   0.000E+00   0.000E+00   0.000E+00         -           -           -  
   199           8    -21.9393      4.0000     10.0000   8.000E-01   1.750E-02   0.000E+00   0.000E+00           T           F   0.000E+00   6.300E-01   0.000E+00   0.000E+00   0.000E+00   0.000E+00   0.000E+00         -           -           -  
   200           8    -22.8053      3.5000     10.0000   8.000E-01   1.750E-02   0.000E+00   0.000E+00           T           F   0.000E+00   6.300E-01   0.000E+00   0.000E+00   0.000E+00   0.000E+00   0.000E+00         -           -           -  
   201           9    -22.8053     -3.5000     10.0000   8.000E-01   1.750E-02   0.000E+00   0.000E+00           T           F   0.000E+00   6.300E-01   0.000E+00   0.000E+00   0.000E+00   0.000E+00   0.000E+00         -           -           -  
   202           9    -21.9393     -4.0000     10.0000   8.000E-01   1.750E-02   0.000E+00   0.000E+00           T           F   0.000E+00   6.300E-01   0.000E+00   0.000E+00   0.000E+00   0.000E+00   0.000E+00         -           -           -  
   203           9    -21.0732     -4.5000     10.0000   8.000E-01   1.750E-02   0.000E+00   0.000E+00           T           F   0.000E+00   6.300E-01   0.000E+00   0.000E+00   0.000E+00   0.000E+00   0.000E+00         -           -           -  
   204           9    -20.2072     -5.0000     10.0000   8.000E-01   1.750E-02   0.000E+00   0.000E+00           T           F   0.000E+00   6.300E-01   0.000E+00   0.000E+00   0.000E+00   0.000E+00   0.000E+00         -           -           -  
   205           9    -19.3412     -5.5000     10.0000   8.000E-01   1.750E-02   0.000E+00   0.000E+00           T           F   0.000E+00   6.300E-01   0.000E+00   0.000E+00   0.000E+00   0.000E+00   0.000E+00         -           -           -  
   206           9    -18.4752     -6.0000     10.0000   8.000E-01   1.750E-02   0.000E+00   0.000E+00           T           F   0.000E+00   6.300E-01   0.000E+00   0.000E+00   0.000E+00   0.000E+00   0.000E+00         -           -           -  
   207           9    -17.6091     -6.5000     10.0000   8.000E-01   1.750E-02   0.000E+00   0.000E+00           T           F   0.000E+00   6.300E-01   0.000E+00   0.000E+00   0.000E+00   0.000E+00   0.000E+00         -           -           -  
   208           9    -16.7431     -7.0000     10.0000   8.000E-01   1.750E-02   0.000E+00   0.000E+00           T           F   0.000E+00   6.300E-01   0.000E+00   0.000E+00   0.000E+00   0.000E+00   0.000E+00         -           -           -  
   209           9    -15.8771     -7.5000     10.0000   8.000E-01   1.750E-02   0.000E+00   0.000E+00           T           F   0.000E+00   6.300E-01   0.000E+00   0.000E+00   0.000E+00   0.000E+00   0.000E+00         -           -           -  
   210           9    -15.0111     -8.0000     10.0000   8.000E-01   1.750E-02   0.000E+00   0.000E+00           T           F   0.000E+00   6.300E-01   0.000E+00   0.000E+00   0.000E+00   0.000E+00   0.000E+00         -           -           -  
   211           9    -14.1450     -8.5000     10.0000   8.000E-01   1.750E-02   0.000E+00   0.000E+00           T           F   0.000E+00   6.300E-01   0.000E+00   0.000E+00   0.000E+00   0.000E+00   0.000E+00         -           -           -  
   212           9    -13.2790     -9.0000     10.0000   8.000E-01   1.750E-02   0.000E+00   0.000E+00           T           F   0.000E+00   6.300E-01   0.000E+00   0.000E+00   0.000E+00   0.000E+00   0.000E+00         -           -           -  
   213           9    -12.4130     -9.5000     10.0000   8.000E-01   1.750E-02   0.000E+00   0.000E+00           T           F   0.000E+00   6.300E-01   0.000E+00   0.000E+00   0.000E+00   0.000E+00   0.000E+00         -           -           -  
   214           9    -11.5470    -10.0000     10.0000   8.000E-01   1.750E-02   0.000E+00   0.000E+00           T           F   0.000E+00   6.300E-01   0.000E+00   0.000E+00   0.000E+00   0.000E+00   0.000E+00         -           -           -  
   215           9    -10.6809    -10.5000     10.0000   8.000E-01   1.750E-02   0.000E+00   0.000E+00           T           F   0.000E+00   6.300E-01   0.000E+00   0.000E+00   0.000E+00   0.000E+00   0.000E+00         -           -           -  
   216           9     -9.8149    -11.0000     10.0000   8.000E-01   1.750E-02   0.000E+00   0.000E+00           T           F   0.000E+00   6.300E-01   0.000E+00   0.000E+00   0.000E+00   0.000E+00   0.000E+00         -           -           -  
   217           9     -8.9489    -11.5000     10.0000   8.000E-01   1.750E-02   0.000E+00   0.000E+00           T           F   0.000E+00   6.300E-01   0.000E+00   0.000E+00   0.000E+00   0.000E+00   0.000E+00         -           -           -  
   218           9     -8.0829    -12.0000     10.0000   8.000E-01   1.750E-02   0.000E+00   0.000E+00           T           F   0.000E+00   6.300E-01   0.000E+00   0.000E+00   0.000E+00   0.000E+00   0.000E+00         -           -           -  
   219           9     -7.2169    -12.5000     10.0000   8.000E-01   1.750E-02   0.000E+00   0.000E+00           T           F   0.000E+00   6.300E-01   0.000E+00   0.000E+00   0.000E+00   0.000E+00   0.000E+00         -           -           -  
   220           9     -6.3508    -13.0000     10.0000   8.000E-01   1.750E-02   0.000E+00   0.000E+00           T           F   0.000E+00   6.300E-01   0.000E+00   0.000E+00   0.000E+00   0.000E+00   0.000E+00         -           -           -  
   221           9     -5.4848    -13.5000     10.0000   8.000E-01   1.750E-02   0.000E+00   0.000E+00           T           F   0.000E+00   6.300E-01   0.000E+00   0.000E+00   0.000E+00   0.000E+00   0.000E+00         -           -           -  
   222           9     -4.6188    -14.0000     10.0000   8.000E-01   1.750E-02   0.000E+00   0.000E+00           T           F   0.000E+00   6.300E-01   0.000E+00   0.000E+00   0.000E+00   0.000E+00   0.000E+00         -           -           -  
   223           9     -3.7528    -14.5000     10.0000   8.000E-01   1.750E-02   0.000E+00   0.000E+00           T           F   0.000E+00   6.300E-01   0.000E+00   0.000E+00   0.000E+00   0.000E+00   0.000E+00         -           -           -  
   224           9     -2.8867    -15.0000     10.0000   8.000E-01   1.750E-02   0.000E+00   0.000E+00           T           F   0.000E+00   6.300E-01   0.000E+00   0.000E+00   0.000E+00   0.000E+00   0.000E+00         -           -           -  
   225           9     -2.0207    -15.5000     10.0000   8.000E-01   1.750E-02   0.000E+00   0.000E+00           T           F   0.000E+00   6.300E-01   0.000E+00   0.000E+00   0.000E+00   0.000E+00   0.000E+00         -           -           -  
   226           9     -1.1547    -16.0000     10.0000   8.000E-01   1.750E-02   0.000E+00   0.000E+00           T           F   0.000E+00   6.300E-01   0.000E+00   0.000E+00   0.000E+00   0.000E+00   0.000E+00         -           -           -  
   227           9     -0.2887    -16.5000     10.0000   8.000E-01   1.750E-02   0.000E+00   0.000E+00           T           F   0.000E+00   6.300E-01   0.000E+00   0.000E+00   0.000E+00   0.000E+00   0.000E+00         -           -           -  
   228           9      0.5774    -17.0000     10.0000   8.000E-01   1.750E-02   0.000E+00   0.000E+00           T           F   0.000E+00   6.300E-01   0.000E+00   0.000E+00   0.000E+00   0.000E+00   0.000E+00         -           -           -  
   229           9      1.4434    -17.5000     10.0000   8.000E-01   1.750E-02   0.000E+00   0.000E+00           T           F   0.000E+00   6.300E-01   0.000E+00   0.000E+00   0.000E+00   0.000E+00   0.000E+00         -           -           -  
   230           9      2.3094    -18.0000     10.0000   8.000E-01   1.750E-02   0.000E+00   0.000E+00           T           F   0.000E+00   6.300E-01   0.000E+00   0.000E+00   0.000E+00   0.000E+00   0.000E+00         -           -           -  
   231           9      3.1754    -18.5000     10.0000   8.000E-01   1.750E-02   0.000E+00   0.000E+00           T           F   0.000E+00   6.300E-01   0.000E+00   0.000E+00   0.000E+00   0.000E+00   0.000E+00         -           -           -  
   232           9      4.0415    -19.0000     10.0000   8.000E-01   1.750E-02   0.000E+00   0.000E+00           T           F   0.000E+00   6.300E-01   0.000E+00   0.000E+00   0.000E+00   0.000E+00   0.000E+00         -           -           -  
   233           9      4.9075    -19.5000     10.0000   8.000E-01   1.750E-02   0.000E+00   0.000E+00           T           F   0.000E+00   6.300E-01   0.000E+00   0.000E+00   0.000E+00   0.000E+00   0.000E+00         -           -           -  
   234           9      5.7735    -20.0000     10.0000   8.000E-01   1.750E-02   0.000E+00   0.000E+00           T           F   0.000E+00   6.300E-01   0.000E+00   0.000E+00   0.000E+00   0.000E+00   0.000E+00         -           -           -  
   235           9      6.6395    -20.5000     10.0000   8.000E-01   1.750E-02   0.000E+00   0.000E+00           T           F   0.000E+00   6.300E-01   0.000E+00   0.000E+00   0.000E+00   0.000E+00   0.000E+00         -           -           -  
   236           9      7.5056    -21.0000     10.0000   8.000E-01   1.750E-02   0.000E+00   0.000E+00           T           F   0.000E+00   6.300E-01   0.000E+00   0.000E+00   0.000E+00   0.000E+00   0.000E+00         -           -           -  
   237           9      8.3716    -21.5000     10.0000   8.000E-01   1.750E-02   0.000E+00   0.000E+00           T           F   0.000E+00   6.300E-01   0.000E+00   0.000E+00   0.000E+00   0.000E+00   0.000E+00         -           -           -  
   238          10     14.4337    -18.0000     10.0000   8.000E-01   1.750E-02   0.000E+00   0.000E+00           T           F   0.000E+00   6.300E-01   0.000E+00   0.000E+00   0.000E+00   0.000E+00   0.000E+00         -           -           -  
   239          10     14.4338    -17.0000     10.0000   8.000E-01   1.750E-02   0.000E+00   0.000E+00           T           F   0.000E+00   6.300E-01   0.000E+00   0.000E+00   0.000E+00   0.000E+00   0.000E+00         -           -           -  
   240          10     14.4338    -16.0000     10.0000   8.000E-01   1.750E-02   0.000E+00   0.000E+00           T           F   0.000E+00   6.300E-01   0.000E+00   0.000E+00   0.000E+00   0.000E+00   0.000E+00         -           -           -  
   241          10     14.4338    -15.0000     10.0000   8.000E-01   1.750E-02   0.000E+00   0.000E+00           T           F   0.000E+00   6.300E-01   0.000E+00   0.000E+00   0.000E+00   0.000E+00   0.000E+00         -           -           -  
   242          10     14.4338    -14.0000     10.0000   8.000E-01   1.750E-02   0.000E+00   0.000E+00           T           F   0.000E+00   6.300E-01   0.000E+00   0.000E+00   0.000E+00   0.000E+00   0.000E+00         -           -           -  
   243          10     14.4338    -13.0000     10.0000   8.000E-01   1.750E-02   0.000E+00   0.000E+00           T           F   0.000E+00   6.300E-01   0.000E+00   0.000E+00   0.000E+00   0.000E+00   0.000E+00         -           -           -  
   244          10     14.4338    -12.0000     10.0000   8.000E-01   1.750E-02   0.000E+00   0.000E+00           T           F   0.000E+00   6.300E-01   0.000E+00   0.000E+00   0.000E+00   0.000E+00   0.000E+00         -           -           -  
   245          10     14.4338    -11.0000     10.0000   8.000E-01   1.750E-02   0.000E+00   0.000E+00           T           F   0.000E+00   6.300E-01   0.000E+00   0.000E+00   0.000E+00   0.000E+00   0.000E+00         -           -           -  
   246          10     14.4338    -10.0000     10.0000   8.000E-01   1.750E-02   0.000E+00   0.000E+00           T           F   0.000E+00   6.300E-01   0.000E+00   0.000E+00   0.000E+00   0.000E+00   0.000E+00         -           -           -  
   247          10     14.4338     -9.0000     10.0000   8.000E-01   1.750E-02   0.000E+00   0.000E+00           T           F   0.000E+00   6.300E-01   0.000E+00   0.000E+00   0.000E+00   0.000E+00   0.000E+00         -           -           -  
   248          10     14.4338     -8.0000     10.0000   8.000E-01   1.750E-02   0.000E+00   0.000E+00           T           F   0.000E+00   6.300E-01   0.000E+00   0.000E+00   0.000E+00   0.000E+00   0.000E+00         -           -           -  
   249          10     14.4338     -7.0000     10.0000   8.000E-01   1.750E-02   0.000E+00   0.000E+00           T           F   0.000E+00   6.300E-01   0.000E+00   0.000E+00   0.000E+00   0.000E+00   0.000E+00         -           -           -  
   250          10     14.4338     -6.0000     10.0000   8.000E-01   1.750E-02   0.000E+00   0.000E+00           T           F   0.000E+00   6.300E-01   0.000E+00   0.000E+00   0.000E+00   0.000E+00   0.000E+00         -           -           -  
   251          10     14.4338     -5.0000     10.0000   8.000E-01   1.750E-02   0.000E+00   0.000E+00           T           F   0.000E+00   6.300E-01   0.000E+00   0.000E+00   0.000E+00   0.000E+00   0.000E+00         -           -           -  
   252          10     14.4338     -4.0000     10.0000   8.000E-01   1.750E-02   0.000E+00   0.000E+00           T           F   0.000E+00   6.300E-01   0.000E+00   0.000E+00   0.000E+00   0.000E+00   0.000E+00         -           -           -  
   253          10     14.4338     -3.0000     10.0000   8.000E-01   1.750E-02   0.000E+00   0.000E+00           T           F   0.000E+00   6.300E-01   0.000E+00   0.000E+00   0.000E+00   0.000E+00   0.000E+00         -           -           -  
   254          10     14.4338     -2.0000     10.0000   8.000E-01   1.750E-02   0.000E+00   0.000E+00           T           F   0.000E+00   6.300E-01   0.000E+00   0.000E+00   0.000E+00   0.000E+00   0.000E+00         -           -           -  
   255          10     14.4338     -1.0000     10.0000   8.000E-01   1.750E-02   0.000E+00   0.000E+00           T           F   0.000E+00   6.300E-01   0.000E+00   0.000E+00   0.000E+00   0.000E+00   0.000E+00         -           -           -  
   256          10     14.4338      0.0000     10.0000   8.000E-01   1.750E-02   0.000E+00   0.000E+00           T           F   0.000E+00   6.300E-01   0.000E+00   0.000E+00   0.000E+00   0.000E+00   0.000E+00         -           -           -  
   257          10     14.4338      1.0000     10.0000   8.000E-01   1.750E-02   0.000E+00   0.000E+00           T           F   0.000E+00   6.300E-01   0.000E+00   0.000E+00   0.000E+00   0.000E+00   0.000E+00         -           -           -  
   258          10     14.4338      2.0000     10.0000   8.000E-01   1.750E-02   0.000E+00   0.000E+00           T           F   0.000E+00   6.300E-01   0.000E+00   0.000E+00   0.000E+00   0.000E+00   0.000E+00         -           -           -  
   259          10     14.4338      3.0000     10.0000   8.000E-01   1.750E-02   0.000E+00   0.000E+00           T           F   0.000E+00   6.300E-01   0.000E+00   0.000E+00   0.000E+00   0.000E+00   0.000E+00         -           -           -  
   260          10     14.4338      4.0000     10.0000   8.000E-01   1.750E-02   0.000E+00   0.000E+00           T           F   0.000E+00   6.300E-01   0.000E+00   0.000E+00   0.000E+00   0.000E+00   0.000E+00         -           -           -  
   261          10     14.4338      5.0000     10.0000   8.000E-01   1.750E-02   0.000E+00   0.000E+00           T           F   0.000E+00   6.300E-01   0.000E+00   0.000E+00   0.000E+00   0.000E+00   0.000E+00         -           -           -  
   262          10     14.4338      6.0000     10.0000   8.000E-01   1.750E-02   0.000E+00   0.000E+00           T           F   0.000E+00   6.300E-01   0.000E+00   0.000E+00   0.000E+00   0.000E+00   0.000E+00         -           -           -  
   263          10     14.4338      7.0000     10.0000   8.000E-01   1.750E-02   0.000E+00   0.000E+00           T           F   0.000E+00   6.300E-01   0.000E+00   0.000E+00   0.000E+00   0.000E+00   0.000E+00         -           -           -  
   264          10     14.4338      8.0000     10.0000   8.000E-01   1.750E-02   0.000E+00   0.000E+00           T           F   0.000E+00   6.300E-01   0.000E+00   0.000E+00   0.000E+00   0.000E+00   0.000E+00         -           -           -  
   265          10     14.4338      9.0000     10.0000   8.000E-01   1.750E-02   0.000E+00   0.000E+00           T           F   0.000E+00   6.300E-01   0.000E+00   0.000E+00   0.000E+00   0.000E+00   0.000E+00         -           -           -  
   266          10     14.4338     10.0000     10.0000   8.000E-01   1.750E-02   0.000E+00   0.000E+00           T           F   0.000E+00   6.300E-01   0.000E+00   0.000E+00   0.000E+00   0.000E+00   0.000E+00         -           -           -  
   267          10     14.4338     11.0000     10.0000   8.000E-01   1.750E-02   0.000E+00   0.000E+00           T           F   0.000E+00   6.300E-01   0.000E+00   0.000E+00   0.000E+00   0.000E+00   0.000E+00         -           -           -  
   268          10     14.4338     12.0000     10.0000   8.000E-01   1.750E-02   0.000E+00   0.000E+00           T           F   0.000E+00   6.300E-01   0.000E+00   0.000E+00   0.000E+00   0.000E+00   0.000E+00         -           -           -  
   269          10     14.4338     13.0000     10.0000   8.000E-01   1.750E-02   0.000E+00   0.000E+00           T           F   0.000E+00   6.300E-01   0.000E+00   0.000E+00   0.000E+00   0.000E+00   0.000E+00         -           -           -  
   270          10     14.4338     14.0000     10.0000   8.000E-01   1.750E-02   0.000E+00   0.000E+00           T           F   0.000E+00   6.300E-01   0.000E+00   0.000E+00   0.000E+00   0.000E+00   0.000E+00         -           -           -  
   271          10     14.4338     15.0000     10.0000   8.000E-01   1.750E-02   0.000E+00   0.000E+00           T           F   0.000E+00   6.300E-01   0.000E+00   0.000E+00   0.000E+00   0.000E+00   0.000E+00         -           -           -  
   272          10     14.4338     16.0000     10.0000   8.000E-01   1.750E-02   0.000E+00   0.000E+00           T           F   0.000E+00   6.300E-01   0.000E+00   0.000E+00   0.000E+00   0.000E+00   0.000E+00         -           -           -  
   273          10     14.4338     17.0000     10.0000   8.000E-01   1.750E-02   0.000E+00   0.000E+00           T           F   0.000E+00   6.300E-01   0.000E+00   0.000E+00   0.000E+00   0.000E+00   0.000E+00         -           -           -  
   274          10     14.4338     18.0000     10.0000   8.000E-01   1.750E-02   0.000E+00   0.000E+00           T           F   0.000E+00   6.300E-01   0.000E+00   0.000E+00   0.000E+00   0.000E+00   0.000E+00         -           -           -  
   275          11      3.1754     18.5000    -17.0000   8.000E-01   1.750E-02   0.000E+00   0.000E+00           T           F   0.000E+00   6.300E-01   0.000E+00   0.000E+00   0.000E+00   0.000E+00   0.000E+00         -           -           -  
   276          11      2.3094     18.0000    -17.0000   8.000E-01   1.750E-02   0.000E+00   0.000E+00           T           F   0.000E+00   6.300E-01   0.000E+00   0.000E+00   0.000E+00   0.000E+00   0.000E+00         -           -           -  
   277          11      1.4434     17.5000    -17.0000   8.000E-01   1.750E-02   0.000E+00   0.000E+00           T           F   0.000E+00   6.300E-01   0.000E+00   0.000E+00   0.000E+00   0.000E+00   0.000E+00         -           -           -  
   278          11      0.5773     17.0000    -17.0000   8.000E-01   1.750E-02   0.000E+00   0.000E+00           T           F   0.000E+00   6.300E-01   0.000E+00   0.000E+00   0.000E+00   0.000E+00   0.000E+00         -           -           -  
   279          11     -0.2887     16.5000    -17.0000   8.000E-01   1.750E-02   0.000E+00   0.000E+00           T           F   0.000E+00   6.300E-01   0.000E+00   0.000E+00   0.000E+00   0.000E+00   0.000E+00         -           -           -  
   280          11     -1.1547     16.0000    -17.0000   8.000E-01   1.750E-02   0.000E+00   0.000E+00           T           F   0.000E+00   6.300E-01   0.000E+00   0.000E+00   0.000E+00   0.000E+00   0.000E+00         -           -           -  
   281          11     -2.0207     15.5000    -17.0000   8.000E-01   1.750E-02   0.000E+00   0.000E+00           T           F   0.000E+00   6.300E-01   0.000E+00   0.000E+00   0.000E+00   0.000E+00   0.000E+00         -           -           -  
   282          11     -2.8868     15.0000    -17.0000   8.000E-01   1.750E-02   0.000E+00   0.000E+00           T           F   0.000E+00   6.300E-01   0.000E+00   0.000E+00   0.000E+00   0.000E+00   0.000E+00         -           -           -  
   283          11     -3.7528     14.5000    -17.0000   8.000E-01   1.750E-02   0.000E+00   0.000E+00           T           F   0.000E+00   6.300E-01   0.000E+00   0.000E+00   0.000E+00   0.000E+00   0.000E+00         -           -           -  
   284          11     -4.6188     14.0000    -17.0000   8.000E-01   1.750E-02   0.000E+00   0.000E+00           T           F   0.000E+00   6.300E-01   0.000E+00   0.000E+00   0.000E+00   0.000E+00   0.000E+00         -           -           -  
   285          11     -5.4848     13.5000    -17.0000   8.000E-01   1.750E-02   0.000E+00   0.000E+00           T           F   0.000E+00   6.300E-01   0.000E+00   0.000E+00   0.000E+00   0.000E+00   0.000E+00         -           -           -  
   286          11     -6.3509     13.0000    -17.0000   8.000E-01   1.750E-02   0.000E+00   0.000E+00           T           F   0.000E+00   6.300E-01   0.000E+00   0.000E+00   0.000E+00   0.000E+00   0.000E+00         -           -           -  
   287          11     -7.2169     12.5000    -17.0000   8.000E-01   1.750E-02   0.000E+00   0.000E+00           T           F   0.000E+00   6.300E-01   0.000E+00   0.000E+00   0.000E+00   0.000E+00   0.000E+00         -           -           -  
   288          11     -8.0829     12.0000    -17.0000   8.000E-01   1.750E-02   0.000E+00   0.000E+00           T           F   0.000E+00   6.300E-01   0.000E+00   0.000E+00   0.000E+00   0.000E+00   0.000E+00         -           -           -  
   289          11     -8.9489     11.5000    -17.0000   8.000E-01   1.750E-02   0.000E+00   0.000E+00           T           F   0.000E+00   6.300E-01   0.000E+00   0.000E+00   0.000E+00   0.000E+00   0.000E+00         -           -           -  
   290          11     -9.8150     11.0000    -17.0000   8.000E-01   1.750E-02   0.000E+00   0.000E+00           T           F   0.000E+00   6.300E-01   0.000E+00   0.000E+00   0.000E+00   0.000E+00   0.000E+00         -           -           -  
   291          11    -10.6810     10.5000    -17.0000   8.000E-01   1.750E-02   0.000E+00   0.000E+00           T           F   0.000E+00   6.300E-01   0.000E+00   0.000E+00   0.000E+00   0.000E+00   0.000E+00         -           -           -  
   292          11    -11.5470     10.0000    -17.0000   8.000E-01   1.750E-02   0.000E+00   0.000E+00           T           F   0.000E+00   6.300E-01   0.000E+00   0.000E+00   0.000E+00   0.000E+00   0.000E+00         -           -           -  
   293          11    -12.4130      9.5000    -17.0000   8.000E-01   1.750E-02   0.000E+00   0.000E+00           T           F   0.000E+00   6.300E-01   0.000E+00   0.000E+00   0.000E+00   0.000E+00   0.000E+00         -           -           -  
   294          11    -13.2791      9.0000    -17.0000   8.000E-01   1.750E-02   0.000E+00   0.000E+00           T           F   0.000E+00   6.300E-01   0.000E+00   0.000E+00   0.000E+00   0.000E+00   0.000E+00         -           -           -  
   295          11    -14.1451      8.5000    -17.0000   8.000E-01   1.750E-02   0.000E+00   0.000E+00           T           F   0.000E+00   6.300E-01   0.000E+00   0.000E+00   0.000E+00   0.000E+00   0.000E+00         -           -           -  
   296          11    -15.0111      8.0000    -17.0000   8.000E-01   1.750E-02   0.000E+00   0.000E+00           T           F   0.000E+00   6.300E-01   0.000E+00   0.000E+00   0.000E+00   0.000E+00   0.000E+00         -           -           -  
   297          11    -15.8771      7.5000    -17.0000   8.000E-01   1.750E-02   0.000E+00   0.000E+00           T           F   0.000E+00   6.300E-01   0.000E+00   0.000E+00   0.000E+00   0.000E+00   0.000E+00         -           -           -  
   298          11    -16.7432      7.0000    -17.0000   8.000E-01   1.750E-02   0.000E+00   0.000E+00           T           F   0.000E+00   6.300E-01   0.000E+00   0.000E+00   0.000E+00   0.000E+00   0.000E+00         -           -           -  
   299          11    -17.6092      6.5000    -17.0000   8.000E-01   1.750E-02   0.000E+00   0.000E+00           T           F   0.000E+00   6.300E-01   0.000E+00   0.000E+00   0.000E+00   0.000E+00   0.000E+00         -           -           -  
   300          12    -17.6092     -6.5000    -17.0000   8.000E-01   1.750E-02   0.000E+00   0.000E+00           T           F   0.000E+00   6.300E-01   0.000E+00   0.000E+00   0.000E+00   0.000E+00   0.000E+00         -           -           -  
   301          12    -16.7432     -7.0000    -17.0000   8.000E-01   1.750E-02   0.000E+00   0.000E+00           T           F   0.000E+00   6.300E-01   0.000E+00   0.000E+00   0.000E+00   0.000E+00   0.000E+00         -           -           -  
   302          12    -15.8771     -7.5000    -17.0000   8.000E-01   1.750E-02   0.000E+00   0.000E+00           T           F   0.000E+00   6.300E-01   0.000E+00   0.000E+00   0.000E+00   0.000E+00   0.000E+00         -           -           -  
   303          12    -15.0111     -8.0000    -17.0000   8.000E-01   1.750E-02   0.000E+00   0.000E+00           T           F   0.000E+00   6.300E-01   0.000E+00   0.000E+00   0.000E+00   0.000E+00   0.000E+00         -           -           -  
   304          12    -14.1451     -8.5000    -17.0000   8.000E-01   1.750E-02   0.000E+00   0.000E+00           T           F   0.000E+00   6.300E-01   0.000E+00   0.000E+00   0.000E+00   0.000E+00   0.000E+00         -           -           -  
   305          12    -13.2791     -9.0000    -17.0000   8.000E-01   1.750E-02   0.000E+00   0.000E+00           T           F   0.000E+00   6.300E-01   0.000E+00   0.000E+00   0.000E+00   0.000E+00   0.000E+00         -           -           -  
   306          12    -12.4130     -9.5000    -17.0000   8.000E-01   1.750E-02   0.000E+00   0.000E+00           T           F   0.000E+00   6.300E-01   0.000E+00   0.000E+00   0.000E+00   0.000E+00   0.000E+00         -           -           -  
   307          12    -11.5470    -10.0000    -17.0000   8.000E-01   1.750E-02   0.000E+00   0.000E+00           T           F   0.000E+00   6.300E-01   0.000E+00   0.000E+00   0.000E+00   0.000E+00   0.000E+00         -           -           -  
   308          12    -10.6810    -10.5000    -17.0000   8.000E-01   1.750E-02   0.000E+00   0.000E+00           T           F   0.000E+00   6.300E-01   0.000E+00   0.000E+00   0.000E+00   0.000E+00   0.000E+00         -           -           -  
   309          12     -9.8149    -11.0000    -17.0000   8.000E-01   1.750E-02   0.000E+00   0.000E+00           T           F   0.000E+00   6.300E-01   0.000E+00   0.000E+00   0.000E+00   0.000E+00   0.000E+00         -           -           -  
[...]
       4772   0.59650E+02       3.97547E+03       0.00000E+00       2.04072E+01       0.00000E+00      -4.30473E+04       0.00000E+00       0.00000E+00       3.98069E+03       0.00000E+00       4.30037E+04       0.00000E+00      -3.08494E+01       1.29262E+01       0.00000E+00      -2.04989E+03       0.00000E+00      -6.70064E+01       0.00000E+00       0.00000E+00       4.32060E+04       0.00000E+00       3.34042E+05       0.00000E+00       3.12783E+01      -4.26189E+04       0.00000E+00       5.36211E+01       0.00000E+00       3.32663E+05       0.00000E+00       0.00000E+00      -4.41417E+02       0.00000E+00      -4.14016E+02       0.00000E+00       8.45524E+05
       4773   0.59663E+02       3.76237E+03       0.00000E+00       1.70493E+01       0.00000E+00      -4.34988E+04       0.00000E+00       0.00000E+00       3.76547E+03       0.00000E+00       4.34607E+04       0.00000E+00      -3.77165E+01       1.32645E+01       0.00000E+00      -2.07571E+03       0.00000E+00      -6.80767E+01       0.00000E+00       0.00000E+00       4.36183E+04       0.00000E+00       3.35790E+05       0.00000E+00       1.57382E+01      -4.30276E+04       0.00000E+00       3.77580E+01       0.00000E+00       3.33915E+05       0.00000E+00       0.00000E+00      -4.37525E+02       0.00000E+00      -3.62717E+02       0.00000E+00       8.09709E+05
       4774   0.59675E+02       3.53045E+03       0.00000E+00       1.36107E+01       0.00000E+00      -4.38511E+04       0.00000E+00       0.00000E+00       3.53419E+03       0.00000E+00       4.38246E+04       0.00000E+00      -4.45569E+01       1.35903E+01       0.00000E+00      -2.10215E+03       0.00000E+00      -6.91240E+01       0.00000E+00       0.00000E+00       4.39484E+04       0.00000E+00       3.36432E+05       0.00000E+00       2.66667E-01      -4.33434E+04       0.00000E+00       2.19072E+01       0.00000E+00       3.34957E+05       0.00000E+00       0.00000E+00      -4.33391E+02       0.00000E+00      -3.11384E+02       0.00000E+00       7.53446E+05
       4775   0.59688E+02       3.31757E+03       0.00000E+00       1.01053E+01       0.00000E+00      -4.42787E+04       0.00000E+00       0.00000E+00       3.31880E+03       0.00000E+00       4.42596E+04       0.00000E+00      -5.13480E+01       1.39049E+01       0.00000E+00      -2.12636E+03       0.00000E+00      -7.01473E+01       0.00000E+00       0.00000E+00       4.43389E+04       0.00000E+00       3.38057E+05       0.00000E+00      -1.51181E+01      -4.37291E+04       0.00000E+00       6.11767E+00       0.00000E+00       3.36127E+05       0.00000E+00       0.00000E+00      -4.29065E+02       0.00000E+00      -2.60200E+02       0.00000E+00       7.15084E+05
       4776   0.59700E+02       3.08747E+03       0.00000E+00       6.55485E+00       0.00000E+00      -4.46071E+04       0.00000E+00       0.00000E+00       3.08917E+03       0.00000E+00       4.46012E+04       0.00000E+00      -5.80710E+01       1.42069E+01       0.00000E+00      -2.15109E+03       0.00000E+00      -7.11448E+01       0.00000E+00       0.00000E+00       4.46481E+04       0.00000E+00       3.38603E+05       0.00000E+00      -3.03385E+01      -4.40218E+04       0.00000E+00      -9.55454E+00       0.00000E+00       3.37074E+05       0.00000E+00       0.00000E+00      -4.24565E+02       0.00000E+00      -2.09333E+02       0.00000E+00       6.56889E+05
       4777   0.59713E+02       2.87710E+03       0.00000E+00       2.97346E+00       0.00000E+00      -4.50102E+04       0.00000E+00       0.00000E+00       2.87662E+03       0.00000E+00       4.50100E+04       0.00000E+00      -6.47037E+01       1.44974E+01       0.00000E+00      -2.17370E+03       0.00000E+00      -7.21154E+01       0.00000E+00       0.00000E+00       4.50128E+04       0.00000E+00       3.40104E+05       0.00000E+00      -4.53780E+01      -4.43848E+04       0.00000E+00      -2.50612E+01       0.00000E+00       3.38119E+05       0.00000E+00       0.00000E+00      -4.19940E+02       0.00000E+00      -1.58964E+02       0.00000E+00       6.16821E+05
       4778   0.59725E+02       2.65131E+03       0.00000E+00      -6.16761E-01       0.00000E+00      -4.53137E+04       0.00000E+00       0.00000E+00       2.65152E+03       0.00000E+00       4.53248E+04       0.00000E+00      -7.12273E+01       1.47753E+01       0.00000E+00      -2.19676E+03       0.00000E+00      -7.30574E+01       0.00000E+00       0.00000E+00       4.52966E+04       0.00000E+00       3.40541E+05       0.00000E+00      -6.01591E+01      -4.46532E+04       0.00000E+00      -4.03468E+01       0.00000E+00       3.38971E+05       0.00000E+00       0.00000E+00      -4.15208E+02       0.00000E+00      -1.09258E+02       0.00000E+00       5.57493E+05
       4779   0.59738E+02       2.44727E+03       0.00000E+00      -4.20178E+00       0.00000E+00      -4.56903E+04       0.00000E+00       0.00000E+00       2.44512E+03       0.00000E+00       4.57086E+04       0.00000E+00      -7.76204E+01       1.50416E+01       0.00000E+00      -2.21760E+03       0.00000E+00      -7.39696E+01       0.00000E+00       0.00000E+00       4.56366E+04       0.00000E+00       3.41943E+05       0.00000E+00      -7.46661E+01      -4.49924E+04       0.00000E+00      -5.53643E+01       0.00000E+00       3.39907E+05       0.00000E+00       0.00000E+00      -4.10418E+02       0.00000E+00      -6.03924E+01       0.00000E+00       5.17155E+05
       4780   0.59750E+02       2.22891E+03       0.00000E+00      -7.75971E+00       0.00000E+00      -4.59657E+04       0.00000E+00       0.00000E+00       2.22741E+03       0.00000E+00       4.59964E+04       0.00000E+00      -8.38649E+01       1.52950E+01       0.00000E+00      -2.23889E+03       0.00000E+00      -7.48504E+01       0.00000E+00       0.00000E+00       4.58940E+04       0.00000E+00       3.42289E+05       0.00000E+00      -8.88238E+01      -4.52369E+04       0.00000E+00      -7.00598E+01       0.00000E+00       3.40651E+05       0.00000E+00       0.00000E+00      -4.05587E+02       0.00000E+00      -1.25288E+01       0.00000E+00       4.57987E+05
       4781   0.59763E+02       2.03415E+03       0.00000E+00      -1.12767E+01       0.00000E+00      -4.63166E+04       0.00000E+00       0.00000E+00       2.03040E+03       0.00000E+00       4.63527E+04       0.00000E+00      -8.99398E+01       1.55369E+01       0.00000E+00      -2.25794E+03       0.00000E+00      -7.56987E+01       0.00000E+00       0.00000E+00       4.62100E+04       0.00000E+00       3.43586E+05       0.00000E+00      -1.02618E+02      -4.55502E+04       0.00000E+00      -8.43881E+01       0.00000E+00       3.41500E+05       0.00000E+00       0.00000E+00      -4.00765E+02       0.00000E+00       3.41635E+01       0.00000E+00       4.18247E+05
       4782   0.59775E+02       1.82624E+03       0.00000E+00      -1.47315E+01       0.00000E+00      -4.65647E+04       0.00000E+00       0.00000E+00       1.82336E+03       0.00000E+00       4.66125E+04       0.00000E+00      -9.58283E+01       1.57658E+01       0.00000E+00      -2.27743E+03       0.00000E+00      -7.65128E+01       0.00000E+00       0.00000E+00       4.64401E+04       0.00000E+00       3.43818E+05       0.00000E+00      -1.15976E+02      -4.57677E+04       0.00000E+00      -9.82977E+01       0.00000E+00       3.42139E+05       0.00000E+00       0.00000E+00      -3.95966E+02       0.00000E+00       7.95298E+01       0.00000E+00       3.60230E+05
       4783   0.59788E+02       1.64356E+03       0.00000E+00      -1.81109E+01       0.00000E+00      -4.68870E+04       0.00000E+00       0.00000E+00       1.63835E+03       0.00000E+00       4.69398E+04       0.00000E+00      -1.01510E+02       1.59831E+01       0.00000E+00      -2.29460E+03       0.00000E+00      -7.72917E+01       0.00000E+00       0.00000E+00       4.67309E+04       0.00000E+00       3.45036E+05       0.00000E+00      -1.28885E+02      -4.60571E+04       0.00000E+00      -1.11746E+02       0.00000E+00       3.42907E+05       0.00000E+00       0.00000E+00      -3.91239E+02       0.00000E+00       1.23409E+02       0.00000E+00       3.22251E+05
       4784   0.59800E+02       1.44939E+03       0.00000E+00      -2.13943E+01       0.00000E+00      -4.71057E+04       0.00000E+00       0.00000E+00       1.44459E+03       0.00000E+00       4.71697E+04       0.00000E+00      -1.06970E+02       1.61874E+01       0.00000E+00      -2.31219E+03       0.00000E+00      -7.80336E+01       0.00000E+00       0.00000E+00       4.69350E+04       0.00000E+00       3.45170E+05       0.00000E+00      -1.41275E+02      -4.62490E+04       0.00000E+00      -1.24684E+02       0.00000E+00       3.43463E+05       0.00000E+00       0.00000E+00      -3.86595E+02       0.00000E+00       1.65657E+02       0.00000E+00       2.66404E+05
       4785   0.59812E+02       1.28111E+03       0.00000E+00      -2.45694E+01       0.00000E+00      -4.73995E+04       0.00000E+00       0.00000E+00       1.27452E+03       0.00000E+00       4.74677E+04       0.00000E+00      -1.12189E+02       1.63800E+01       0.00000E+00      -2.32747E+03       0.00000E+00      -7.87378E+01       0.00000E+00       0.00000E+00       4.71972E+04       0.00000E+00       3.46304E+05       0.00000E+00      -1.53138E+02      -4.65111E+04       0.00000E+00      -1.37073E+02       0.00000E+00       3.44135E+05       0.00000E+00       0.00000E+00      -3.82083E+02       0.00000E+00       2.06121E+02       0.00000E+00       2.31190E+05
       4786   0.59825E+02       1.10272E+03       0.00000E+00      -2.76169E+01       0.00000E+00      -4.75887E+04       0.00000E+00       0.00000E+00       1.09675E+03       0.00000E+00       4.76681E+04       0.00000E+00      -1.17152E+02       1.65595E+01       0.00000E+00      -2.34312E+03       0.00000E+00      -7.94027E+01       0.00000E+00       0.00000E+00       4.73745E+04       0.00000E+00       3.46344E+05       0.00000E+00      -1.64405E+02      -4.66773E+04       0.00000E+00      -1.48866E+02       0.00000E+00       3.44610E+05       0.00000E+00       0.00000E+00      -3.77712E+02       0.00000E+00       2.44670E+02       0.00000E+00       1.78476E+05
       4787   0.59838E+02       9.51866E+02       0.00000E+00      -3.05257E+01       0.00000E+00      -4.78522E+04       0.00000E+00       0.00000E+00       9.44044E+02       0.00000E+00       4.79346E+04       0.00000E+00      -1.21843E+02       1.67274E+01       0.00000E+00      -2.35644E+03       0.00000E+00      -8.00273E+01       0.00000E+00       0.00000E+00       4.76085E+04       0.00000E+00       3.47392E+05       0.00000E+00      -1.75073E+02      -4.69114E+04       0.00000E+00      -1.60030E+02       0.00000E+00       3.45186E+05       0.00000E+00       0.00000E+00      -3.73527E+02       0.00000E+00       2.81167E+02       0.00000E+00       1.46915E+05
       4788   0.59850E+02       7.91893E+02       0.00000E+00      -3.32778E+01       0.00000E+00      -4.80102E+04       0.00000E+00       0.00000E+00       7.85067E+02       0.00000E+00       4.81041E+04       0.00000E+00      -1.26249E+02       1.68821E+01       0.00000E+00      -2.37013E+03       0.00000E+00      -8.06103E+01       0.00000E+00       0.00000E+00       4.77577E+04       0.00000E+00       3.47341E+05       0.00000E+00      -1.85077E+02      -4.70494E+04       0.00000E+00      -1.70522E+02       0.00000E+00       3.45566E+05       0.00000E+00       0.00000E+00      -3.69535E+02       0.00000E+00       3.15489E+02       0.00000E+00       9.83040E+04
       4789   0.59863E+02       6.60499E+02       0.00000E+00      -3.58636E+01       0.00000E+00      -4.82434E+04       0.00000E+00       0.00000E+00       6.51593E+02       0.00000E+00       4.83383E+04       0.00000E+00      -1.30354E+02       1.70252E+01       0.00000E+00      -2.38145E+03       0.00000E+00      -8.11509E+01       0.00000E+00       0.00000E+00       4.79631E+04       0.00000E+00       3.48312E+05       0.00000E+00      -1.94415E+02      -4.72567E+04       0.00000E+00      -1.80311E+02       0.00000E+00       3.46075E+05       0.00000E+00       0.00000E+00      -3.65779E+02       0.00000E+00       3.47516E+02       0.00000E+00       7.12393E+04
       4790   0.59875E+02       5.21280E+02       0.00000E+00      -3.82667E+01       0.00000E+00      -4.83703E+04       0.00000E+00       0.00000E+00       5.13173E+02       0.00000E+00       4.84753E+04       0.00000E+00      -1.34147E+02       1.71551E+01       0.00000E+00      -2.39311E+03       0.00000E+00      -8.16478E+01       0.00000E+00       0.00000E+00       4.80853E+04       0.00000E+00       3.48187E+05       0.00000E+00      -2.03029E+02      -4.73668E+04       0.00000E+00      -1.89361E+02       0.00000E+00       3.46385E+05       0.00000E+00       0.00000E+00      -3.62263E+02       0.00000E+00       3.77140E+02       0.00000E+00       2.77436E+04
       4791   0.59888E+02       4.11114E+02       0.00000E+00      -4.04794E+01       0.00000E+00      -4.85715E+04       0.00000E+00       0.00000E+00       4.01286E+02       0.00000E+00       4.86773E+04       0.00000E+00      -1.37615E+02       1.72734E+01       0.00000E+00      -2.40241E+03       0.00000E+00      -8.21005E+01       0.00000E+00       0.00000E+00       4.82601E+04       0.00000E+00       3.49071E+05       0.00000E+00      -2.10921E+02      -4.75461E+04       0.00000E+00      -1.97644E+02       0.00000E+00       3.46803E+05       0.00000E+00       0.00000E+00      -3.59025E+02       0.00000E+00       4.04258E+02       0.00000E+00       5.68277E+03
       4792   0.59900E+02       2.93973E+02       0.00000E+00      -4.24869E+01       0.00000E+00      -4.86665E+04       0.00000E+00       0.00000E+00       2.85227E+02       0.00000E+00       4.87799E+04       0.00000E+00      -1.40748E+02       1.73785E+01       0.00000E+00      -2.41204E+03       0.00000E+00      -8.25077E+01       0.00000E+00       0.00000E+00       4.83524E+04       0.00000E+00       3.48897E+05       0.00000E+00      -2.18036E+02      -4.76288E+04       0.00000E+00      -2.05131E+02       0.00000E+00       3.47040E+05       0.00000E+00       0.00000E+00      -3.56067E+02       0.00000E+00       4.28779E+02       0.00000E+00      -3.23311E+04
       4793   0.59913E+02       2.07217E+02       0.00000E+00      -4.42836E+01       0.00000E+00      -4.88354E+04       0.00000E+00       0.00000E+00       1.96671E+02       0.00000E+00       4.89502E+04       0.00000E+00      -1.43535E+02       1.74719E+01       0.00000E+00      -2.41925E+03       0.00000E+00      -8.28689E+01       0.00000E+00       0.00000E+00       4.84989E+04       0.00000E+00       3.49671E+05       0.00000E+00      -2.24383E+02      -4.77784E+04       0.00000E+00      -2.11798E+02       0.00000E+00       3.47379E+05       0.00000E+00       0.00000E+00      -3.53423E+02       0.00000E+00       4.50616E+02       0.00000E+00      -4.84288E+04
       4794   0.59925E+02       1.14027E+02       0.00000E+00      -4.58568E+01       0.00000E+00      -4.88986E+04       0.00000E+00       0.00000E+00       1.04533E+02       0.00000E+00       4.90189E+04       0.00000E+00      -1.45969E+02       1.75522E+01       0.00000E+00      -2.42680E+03       0.00000E+00      -8.31833E+01       0.00000E+00       0.00000E+00       4.85606E+04       0.00000E+00       3.49389E+05       0.00000E+00      -2.29910E+02      -4.78310E+04       0.00000E+00      -2.17621E+02       0.00000E+00       3.47532E+05       0.00000E+00       0.00000E+00      -3.51092E+02       0.00000E+00       4.69697E+02       0.00000E+00      -8.06093E+04
       4795   0.59938E+02       5.17192E+01       0.00000E+00      -4.72028E+01       0.00000E+00      -4.90342E+04       0.00000E+00       0.00000E+00       4.05992E+01       0.00000E+00       4.91557E+04       0.00000E+00      -1.48041E+02       1.76208E+01       0.00000E+00      -2.43193E+03       0.00000E+00      -8.34505E+01       0.00000E+00       0.00000E+00       4.86784E+04       0.00000E+00       3.50117E+05       0.00000E+00      -2.34630E+02      -4.79533E+04       0.00000E+00      -2.22583E+02       0.00000E+00       3.47808E+05       0.00000E+00       0.00000E+00      -3.49105E+02       0.00000E+00       4.85953E+02       0.00000E+00      -8.99921E+04
       4796   0.59950E+02      -1.64267E+01       0.00000E+00      -4.83113E+01       0.00000E+00      -4.90641E+04       0.00000E+00       0.00000E+00      -2.63467E+01       0.00000E+00       4.91930E+04       0.00000E+00      -1.49746E+02       1.76763E+01       0.00000E+00      -2.43737E+03       0.00000E+00      -8.36697E+01       0.00000E+00       0.00000E+00       4.87117E+04       0.00000E+00       3.49771E+05       0.00000E+00      -2.38499E+02      -4.79770E+04       0.00000E+00      -2.26664E+02       0.00000E+00       3.47901E+05       0.00000E+00       0.00000E+00      -3.47455E+02       0.00000E+00       4.99331E+02       0.00000E+00      -1.15343E+05
       4797   0.59963E+02      -5.31567E+01       0.00000E+00      -4.91807E+01       0.00000E+00      -4.91672E+04       0.00000E+00       0.00000E+00      -6.46767E+01       0.00000E+00       4.92933E+04       0.00000E+00      -1.51077E+02       1.77201E+01       0.00000E+00      -2.44040E+03       0.00000E+00      -8.38407E+01       0.00000E+00       0.00000E+00       4.87985E+04       0.00000E+00       3.50409E+05       0.00000E+00      -2.41535E+02      -4.80702E+04       0.00000E+00      -2.29854E+02       0.00000E+00       3.48090E+05       0.00000E+00       0.00000E+00      -3.46170E+02       0.00000E+00       5.09783E+02       0.00000E+00      -1.18191E+05
       4798   0.59975E+02      -9.52533E+01       0.00000E+00      -4.98031E+01       0.00000E+00      -4.91639E+04       0.00000E+00       0.00000E+00      -1.05493E+02       0.00000E+00       4.92962E+04       0.00000E+00      -1.52031E+02       1.77507E+01       0.00000E+00      -2.44372E+03       0.00000E+00      -8.39630E+01       0.00000E+00       0.00000E+00       4.88013E+04       0.00000E+00       3.49990E+05       0.00000E+00      -2.43696E+02      -4.80657E+04       0.00000E+00      -2.32139E+02       0.00000E+00       3.48105E+05       0.00000E+00       0.00000E+00      -3.45239E+02       0.00000E+00       5.17276E+02       0.00000E+00      -1.36533E+05
       4799   0.59988E+02      -1.05966E+02       0.00000E+00      -5.01793E+01       0.00000E+00      -4.92338E+04       0.00000E+00       0.00000E+00      -1.17684E+02       0.00000E+00       4.93622E+04       0.00000E+00      -1.52605E+02       1.77697E+01       0.00000E+00      -2.44465E+03       0.00000E+00      -8.40366E+01       0.00000E+00       0.00000E+00       4.88585E+04       0.00000E+00       3.50555E+05       0.00000E+00      -2.45009E+02      -4.81287E+04       0.00000E+00      -2.33514E+02       0.00000E+00       3.48231E+05       0.00000E+00       0.00000E+00      -3.44685E+02       0.00000E+00       5.21781E+02       0.00000E+00      -1.32431E+05
       4800   0.60000E+02      -1.21707E+02       0.00000E+00      -5.03036E+01       0.00000E+00      -4.91972E+04       0.00000E+00       0.00000E+00      -1.32160E+02       0.00000E+00       4.93295E+04       0.00000E+00      -1.52796E+02       1.77756E+01       0.00000E+00      -2.44585E+03       0.00000E+00      -8.40611E+01       0.00000E+00       0.00000E+00       4.88320E+04       0.00000E+00       3.50044E+05       0.00000E+00      -2.45437E+02      -4.80956E+04       0.00000E+00      -2.33972E+02       0.00000E+00       3.48160E+05       0.00000E+00       0.00000E+00      -3.44494E+02       0.00000E+00       5.23285E+02       0.00000E+00      -1.43961E+05

This summary file was closed on 06-Oct-2022 at 09:29:54.

